# generated using pymatgen
data_YMn2O4
_symmetry_space_group_name_H-M   'P 1'
_cell_length_a   6.38815201
_cell_length_b   6.38815201
_cell_length_c   6.38815201
_cell_angle_alpha   126.57287272
_cell_angle_beta   126.57287272
_cell_angle_gamma   78.94860722
_symmetry_Int_Tables_number   1
_chemical_formula_structural   YMn2O4
_chemical_formula_sum   'Y2 Mn4 O8'
_cell_volume   162.65616756
_cell_formula_units_Z   2
loop_
 _symmetry_equiv_pos_site_id
 _symmetry_equiv_pos_as_xyz
  1  'x, y, z'
loop_
 _atom_site_type_symbol
 _atom_site_label
 _atom_site_symmetry_multiplicity
 _atom_site_fract_x
 _atom_site_fract_y
 _atom_site_fract_z
 _atom_site_occupancy
  Y  Y0  1  0.00000000  0.00000000  0.00000000  1
  Y  Y1  1  0.75000000  0.25000000  0.50000000  1
  Mn  Mn2  1  0.37500000  0.12500000  0.75000000  1
  Mn  Mn3  1  0.37500000  0.62500000  0.25000000  1
  Mn  Mn4  1  0.87500000  0.62500000  0.25000000  1
  Mn  Mn5  1  0.37500000  0.62500000  0.75000000  1
  O  O6  1  0.15325100  0.60159100  0.85671900  1
  O  O7  1  0.74487300  0.29653200  0.14328100  1
  O  O8  1  0.59674900  0.64840900  0.64328100  1
  O  O9  1  0.00512700  0.95346800  0.35671900  1
  O  O10  1  0.35159100  0.99487300  0.94834000  1
  O  O11  1  0.04653200  0.40325100  0.05166000  1
  O  O12  1  0.70346800  0.84674900  0.44834000  1
  O  O13  1  0.39840900  0.25512700  0.55166000  1
