# generated using pymatgen
data_Sr2Mn2GaO7
_symmetry_space_group_name_H-M   'P 1'
_cell_length_a   13.02902823
_cell_length_b   13.02902823
_cell_length_c   13.02902823
_cell_angle_alpha   156.50846336
_cell_angle_beta   155.87340419
_cell_angle_gamma   33.92554827
_symmetry_Int_Tables_number   1
_chemical_formula_structural   Sr2Mn2GaO7
_chemical_formula_sum   'Sr4 Mn4 Ga2 O14'
_cell_volume   360.01547443
_cell_formula_units_Z   2
loop_
 _symmetry_equiv_pos_site_id
 _symmetry_equiv_pos_as_xyz
  1  'x, y, z'
loop_
 _atom_site_type_symbol
 _atom_site_label
 _atom_site_symmetry_multiplicity
 _atom_site_fract_x
 _atom_site_fract_y
 _atom_site_fract_z
 _atom_site_occupancy
  Sr  Sr0  1  0.33051900  0.84041100  0.48526900  1
  Sr  Sr1  1  0.66948100  0.15475100  0.50989300  1
  Sr  Sr2  1  0.85514200  0.34041100  0.50989300  1
  Sr  Sr3  1  0.14485800  0.65475100  0.48526900  1
  Mn  Mn4  1  0.56801300  0.57012300  0.98691100  1
  Mn  Mn5  1  0.91678800  0.91889800  0.98691100  1
  Mn  Mn6  1  0.08321200  0.07012300  0.00211000  1
  Mn  Mn7  1  0.43198700  0.41889800  0.00211000  1
  Ga  Ga8  1  0.68086300  0.79154900  0.97241200  1
  Ga  Ga9  1  0.31913700  0.29154900  0.11068600  1
  O  O10  1  0.17250300  0.17049100  0.49712200  1
  O  O11  1  0.64161700  0.15140000  0.29301700  1
  O  O12  1  0.17336900  0.67049100  0.99798800  1
  O  O13  1  0.14102000  0.15953000  0.94119200  1
  O  O14  1  0.33411400  0.33113600  0.49312700  1
  O  O15  1  0.33800900  0.83113600  0.99702200  1
  O  O16  1  0.35838300  0.65140000  0.50978300  1
  O  O17  1  0.82663100  0.82461900  0.49712200  1
  O  O18  1  0.82749700  0.32461900  0.99798800  1
  O  O19  1  0.71833900  0.65953000  0.01851100  1
  O  O20  1  0.85898000  0.80017200  0.01851100  1
  O  O21  1  0.28166100  0.30017200  0.94119200  1
  O  O22  1  0.66588600  0.15901300  0.99702200  1
  O  O23  1  0.66199100  0.65901300  0.49312700  1
