# generated using pymatgen
data_CaCoAs2O7
_symmetry_space_group_name_H-M   'P 1'
_cell_length_a   9.11328600
_cell_length_b   7.46493900
_cell_length_c   9.46713237
_cell_angle_alpha   69.36676677
_cell_angle_beta   90.00000000
_cell_angle_gamma   90.00000000
_symmetry_Int_Tables_number   1
_chemical_formula_structural   CaCoAs2O7
_chemical_formula_sum   'Ca4 Co4 As8 O28'
_cell_volume   602.73778331
_cell_formula_units_Z   4
loop_
 _symmetry_equiv_pos_site_id
 _symmetry_equiv_pos_as_xyz
  1  'x, y, z'
loop_
 _atom_site_type_symbol
 _atom_site_label
 _atom_site_symmetry_multiplicity
 _atom_site_fract_x
 _atom_site_fract_y
 _atom_site_fract_z
 _atom_site_occupancy
  Ca  Ca0  1  0.06657500  0.74279400  0.93586700  1
  Ca  Ca1  1  0.56657500  0.25720600  0.56413300  1
  Ca  Ca2  1  0.93342500  0.25720600  0.06413300  1
  Ca  Ca3  1  0.43342500  0.74279400  0.43586800  1
  Co  Co4  1  0.94721800  0.19525600  0.69515400  1
  Co  Co5  1  0.44721800  0.80474400  0.80484600  1
  Co  Co6  1  0.05278200  0.80474400  0.30484600  1
  Co  Co7  1  0.55278200  0.19525600  0.19515400  1
  As  As8  1  0.76065800  0.58009700  0.73419100  1
  As  As9  1  0.26065800  0.41990300  0.76580900  1
  As  As10  1  0.23934200  0.41990300  0.26580900  1
  As  As11  1  0.73934200  0.58009700  0.23419100  1
  As  As12  1  0.70320000  0.98533400  0.95389000  1
  As  As13  1  0.20320000  0.01466600  0.54611000  1
  As  As14  1  0.29680000  0.01466600  0.04611000  1
  As  As15  1  0.79680000  0.98533400  0.45389000  1
  O  O16  1  0.68876400  0.14928000  0.04110100  1
  O  O17  1  0.18876400  0.85072000  0.45889900  1
  O  O18  1  0.31123600  0.85072000  0.95889900  1
  O  O19  1  0.81123600  0.14928000  0.54110100  1
  O  O20  1  0.58257900  0.65617900  0.71963600  1
  O  O21  1  0.08257900  0.34382100  0.78036400  1
  O  O22  1  0.41742100  0.34382100  0.28036400  1
  O  O23  1  0.91742100  0.65617900  0.21963600  1
  O  O24  1  0.86216800  0.57076300  0.88747000  1
  O  O25  1  0.36216800  0.42923700  0.61253000  1
  O  O26  1  0.13783200  0.42923700  0.11253000  1
  O  O27  1  0.63783200  0.57076300  0.38747000  1
  O  O28  1  0.85429100  0.75453100  0.57598500  1
  O  O29  1  0.35429100  0.24546900  0.92401500  1
  O  O30  1  0.14570900  0.24546900  0.42401500  1
  O  O31  1  0.64570900  0.75453100  0.07598500  1
  O  O32  1  0.91175000  0.01249000  0.30613800  1
  O  O33  1  0.41175000  0.98751000  0.19386200  1
  O  O34  1  0.08825000  0.98751000  0.69386200  1
  O  O35  1  0.58825000  0.01249000  0.80613800  1
  O  O36  1  0.73303200  0.37077600  0.20042800  1
  O  O37  1  0.23303200  0.62922400  0.29957200  1
  O  O38  1  0.26696800  0.62922400  0.79957200  1
  O  O39  1  0.76696800  0.37077600  0.70042800  1
  O  O40  1  0.61635900  0.99449000  0.40350200  1
  O  O41  1  0.11635900  0.00551000  0.09649800  1
  O  O42  1  0.38364100  0.00551000  0.59649800  1
  O  O43  1  0.88364100  0.99449000  0.90350200  1
