# generated using pymatgen
data_CaMoF5
_symmetry_space_group_name_H-M   'P 1'
_cell_length_a   10.74768600
_cell_length_b   5.72396900
_cell_length_c   7.99452266
_cell_angle_alpha   70.13787702
_cell_angle_beta   90.00000000
_cell_angle_gamma   90.00000000
_symmetry_Int_Tables_number   1
_chemical_formula_structural   CaMoF5
_chemical_formula_sum   'Ca4 Mo4 F20'
_cell_volume   462.56157722
_cell_formula_units_Z   4
loop_
 _symmetry_equiv_pos_site_id
 _symmetry_equiv_pos_as_xyz
  1  'x, y, z'
loop_
 _atom_site_type_symbol
 _atom_site_label
 _atom_site_symmetry_multiplicity
 _atom_site_fract_x
 _atom_site_fract_y
 _atom_site_fract_z
 _atom_site_occupancy
  Ca  Ca0  1  0.01613900  0.52568900  0.74728300  1
  Ca  Ca1  1  0.51613900  0.47431100  0.75271700  1
  Ca  Ca2  1  0.98386100  0.47431100  0.25271700  1
  Ca  Ca3  1  0.48386100  0.52568900  0.24728300  1
  Mo  Mo4  1  0.75401400  0.10945000  0.59941700  1
  Mo  Mo5  1  0.25401400  0.89055000  0.90058300  1
  Mo  Mo6  1  0.24598600  0.89055000  0.40058300  1
  Mo  Mo7  1  0.74598600  0.10945000  0.09941700  1
  F  F8  1  0.88762600  0.39806600  0.55450700  1
  F  F9  1  0.38762600  0.60193400  0.94549300  1
  F  F10  1  0.11237400  0.60193400  0.44549300  1
  F  F11  1  0.61237400  0.39806600  0.05450700  1
  F  F12  1  0.60627500  0.36464100  0.50290300  1
  F  F13  1  0.10627500  0.63535900  0.99709700  1
  F  F14  1  0.39372500  0.63535900  0.49709700  1
  F  F15  1  0.89372500  0.36464100  0.00290300  1
  F  F16  1  0.40036100  0.13413900  0.80951600  1
  F  F17  1  0.90036100  0.86586100  0.69048400  1
  F  F18  1  0.59963900  0.86586100  0.19048400  1
  F  F19  1  0.09963900  0.13413900  0.30951600  1
  F  F20  1  0.13212300  0.18490500  0.85374500  1
  F  F21  1  0.63212300  0.81509500  0.64625500  1
  F  F22  1  0.86787700  0.81509500  0.14625500  1
  F  F23  1  0.36787700  0.18490500  0.35374500  1
  F  F24  1  0.68757600  0.14684300  0.83893900  1
  F  F25  1  0.18757600  0.85315700  0.66106100  1
  F  F26  1  0.31242400  0.85315700  0.16106100  1
  F  F27  1  0.81242400  0.14684300  0.33893900  1
