# generated using pymatgen
data_Ca3Fe2(ReO6)2
_symmetry_space_group_name_H-M   'P 1'
_cell_length_a   5.37929200
_cell_length_b   5.53661938
_cell_length_c   7.72428361
_cell_angle_alpha   89.98173440
_cell_angle_beta   89.98625516
_cell_angle_gamma   89.55050771
_symmetry_Int_Tables_number   1
_chemical_formula_structural   Ca3Fe2(ReO6)2
_chemical_formula_sum   'Ca3 Fe2 Re2 O12'
_cell_volume   230.04595434
_cell_formula_units_Z   1
loop_
 _symmetry_equiv_pos_site_id
 _symmetry_equiv_pos_as_xyz
  1  'x, y, z'
loop_
 _atom_site_type_symbol
 _atom_site_label
 _atom_site_symmetry_multiplicity
 _atom_site_fract_x
 _atom_site_fract_y
 _atom_site_fract_z
 _atom_site_occupancy
  Ca  Ca0  1  0.01550000  0.94263200  0.75288900  1
  Ca  Ca1  1  0.49002700  0.44899000  0.74936300  1
  Ca  Ca2  1  0.51086500  0.55320400  0.25248100  1
  Fe  Fe3  1  0.00006500  0.48952300  0.00403300  1
  Fe  Fe4  1  0.50330200  0.00067700  0.49609800  1
  Re  Re5  1  0.50416600  0.00267700  0.00881600  1
  Re  Re6  1  0.99751300  0.49248700  0.49222100  1
  O  O7  1  0.08183900  0.47564700  0.25755900  1
  O  O8  1  0.42477500  0.98397200  0.24178600  1
  O  O9  1  0.91911500  0.52226800  0.74450600  1
  O  O10  1  0.58908700  0.02172100  0.75618500  1
  O  O11  1  0.78122500  0.79586200  0.03655400  1
  O  O12  1  0.70371900  0.30534900  0.46465200  1
  O  O13  1  0.21921300  0.20233400  0.94914600  1
  O  O14  1  0.28850200  0.69732700  0.53953500  1
  O  O15  1  0.30205000  0.71569400  0.95631900  1
  O  O16  1  0.19929100  0.21823900  0.55249400  1
  O  O17  1  0.79737300  0.77430900  0.45976600  1
  O  O18  1  0.68652400  0.29591900  0.03800000  1
