# generated using pymatgen
data_Zn2SbWO6
_symmetry_space_group_name_H-M   'P 1'
_cell_length_a   8.07537800
_cell_length_b   5.44421800
_cell_length_c   5.56104305
_cell_angle_alpha   87.97173776
_cell_angle_beta   90.00000000
_cell_angle_gamma   90.00000000
_symmetry_Int_Tables_number   1
_chemical_formula_structural   Zn2SbWO6
_chemical_formula_sum   'Zn4 Sb2 W2 O12'
_cell_volume   244.33318114
_cell_formula_units_Z   2
loop_
 _symmetry_equiv_pos_site_id
 _symmetry_equiv_pos_as_xyz
  1  'x, y, z'
loop_
 _atom_site_type_symbol
 _atom_site_label
 _atom_site_symmetry_multiplicity
 _atom_site_fract_x
 _atom_site_fract_y
 _atom_site_fract_z
 _atom_site_occupancy
  Zn  Zn0  1  0.25000000  0.52208300  0.52431000  1
  Zn  Zn1  1  0.75000000  0.47791700  0.47569000  1
  Zn  Zn2  1  0.25000000  0.01896700  0.98390100  1
  Zn  Zn3  1  0.75000000  0.98103300  0.01609900  1
  Sb  Sb4  1  0.50000000  0.50000000  0.00000000  1
  Sb  Sb5  1  0.00000000  0.50000000  0.00000000  1
  W  W6  1  0.50000000  0.00000000  0.50000000  1
  W  W7  1  0.00000000  0.00000000  0.50000000  1
  O  O8  1  0.57264300  0.68425300  0.63207200  1
  O  O9  1  0.92747900  0.14806100  0.81570700  1
  O  O10  1  0.07264300  0.31574700  0.36792800  1
  O  O11  1  0.42747900  0.85193900  0.18429300  1
  O  O12  1  0.57252100  0.14806100  0.81570700  1
  O  O13  1  0.07252100  0.85193900  0.18429300  1
  O  O14  1  0.75000000  0.61930700  0.12918200  1
  O  O15  1  0.92735700  0.68425300  0.63207200  1
  O  O16  1  0.25000000  0.89792800  0.62208900  1
  O  O17  1  0.42735700  0.31574700  0.36792800  1
  O  O18  1  0.25000000  0.38069300  0.87081800  1
  O  O19  1  0.75000000  0.10207200  0.37791100  1
