# generated using pymatgen
data_Zn3Sn3(AsO4)4
_symmetry_space_group_name_H-M   'P 1'
_cell_length_a   5.45767400
_cell_length_b   9.42372000
_cell_length_c   17.40436030
_cell_angle_alpha   60.92312750
_cell_angle_beta   90.00000000
_cell_angle_gamma   90.00000000
_symmetry_Int_Tables_number   1
_chemical_formula_structural   Zn3Sn3(AsO4)4
_chemical_formula_sum   'Zn6 Sn6 As8 O32'
_cell_volume   782.31884268
_cell_formula_units_Z   2
loop_
 _symmetry_equiv_pos_site_id
 _symmetry_equiv_pos_as_xyz
  1  'x, y, z'
loop_
 _atom_site_type_symbol
 _atom_site_label
 _atom_site_symmetry_multiplicity
 _atom_site_fract_x
 _atom_site_fract_y
 _atom_site_fract_z
 _atom_site_occupancy
  Zn  Zn0  1  0.01078900  0.18106000  0.75759800  1
  Zn  Zn1  1  0.51078900  0.81894000  0.74240200  1
  Zn  Zn2  1  0.98921100  0.81894000  0.24240200  1
  Zn  Zn3  1  0.48921100  0.18106000  0.25759800  1
  Zn  Zn4  1  0.00000000  0.00000000  0.00000000  1
  Zn  Zn5  1  0.50000000  0.00000000  0.50000000  1
  Sn  Sn6  1  0.93452800  0.55199100  0.13861800  1
  Sn  Sn7  1  0.06547200  0.44800900  0.86138200  1
  Sn  Sn8  1  0.43452800  0.44800900  0.36138200  1
  Sn  Sn9  1  0.56547200  0.55199100  0.63861800  1
  Sn  Sn10  1  0.50000000  0.50000000  0.00000000  1
  Sn  Sn11  1  0.00000000  0.50000000  0.50000000  1
  As  As12  1  0.53445900  0.23812800  0.86192400  1
  As  As13  1  0.95163200  0.78507000  0.88554800  1
  As  As14  1  0.45163200  0.21493000  0.61445200  1
  As  As15  1  0.54836800  0.78507000  0.38554800  1
  As  As16  1  0.46554100  0.76187200  0.13807600  1
  As  As17  1  0.04836800  0.21493000  0.11445200  1
  As  As18  1  0.96554100  0.23812800  0.36192400  1
  As  As19  1  0.03445900  0.76187200  0.63807600  1
  O  O20  1  0.21214000  0.68996400  0.73473800  1
  O  O21  1  0.43636900  0.20531000  0.51836200  1
  O  O22  1  0.05667700  0.95040300  0.79478000  1
  O  O23  1  0.97209500  0.60060600  0.61671400  1
  O  O24  1  0.94332300  0.04959700  0.20522000  1
  O  O25  1  0.28786000  0.68996400  0.23473800  1
  O  O26  1  0.55667700  0.04959700  0.70522000  1
  O  O27  1  0.82605500  0.71982400  0.36252200  1
  O  O28  1  0.80849100  0.08010200  0.43873600  1
  O  O29  1  0.78786000  0.31003600  0.26526200  1
  O  O30  1  0.52790500  0.60060600  0.11671400  1
  O  O31  1  0.17394500  0.28017600  0.63747800  1
  O  O32  1  0.14787800  0.61886600  0.91289300  1
  O  O33  1  0.19150900  0.91989800  0.56126400  1
  O  O34  1  0.76641700  0.80564100  0.15194300  1
  O  O35  1  0.26641700  0.19435900  0.34805700  1
  O  O36  1  0.64787800  0.38113400  0.58710700  1
  O  O37  1  0.44332300  0.95040300  0.29478000  1
  O  O38  1  0.30849100  0.91989800  0.06126400  1
  O  O39  1  0.32605500  0.28017600  0.13747800  1
  O  O40  1  0.73358300  0.80564100  0.65194300  1
  O  O41  1  0.23358300  0.19435900  0.84805700  1
  O  O42  1  0.56363100  0.79469000  0.48163800  1
  O  O43  1  0.93636900  0.79469000  0.98163800  1
  O  O44  1  0.85212200  0.38113400  0.08710700  1
  O  O45  1  0.71214000  0.31003600  0.76526200  1
  O  O46  1  0.02790500  0.39939400  0.38328600  1
  O  O47  1  0.69150900  0.08010200  0.93873600  1
  O  O48  1  0.06363100  0.20531000  0.01836200  1
  O  O49  1  0.67394500  0.71982400  0.86252200  1
  O  O50  1  0.35212200  0.61886600  0.41289300  1
  O  O51  1  0.47209500  0.39939400  0.88328600  1
