# generated using pymatgen
data_ZnCo3(P2O7)2
_symmetry_space_group_name_H-M   'P 1'
_cell_length_a   7.57492900
_cell_length_b   7.23343100
_cell_length_c   9.57032123
_cell_angle_alpha   68.56884288
_cell_angle_beta   90.00000000
_cell_angle_gamma   90.00000000
_symmetry_Int_Tables_number   1
_chemical_formula_structural   ZnCo3(P2O7)2
_chemical_formula_sum   'Zn2 Co6 P8 O28'
_cell_volume   488.12664546
_cell_formula_units_Z   2
loop_
 _symmetry_equiv_pos_site_id
 _symmetry_equiv_pos_as_xyz
  1  'x, y, z'
loop_
 _atom_site_type_symbol
 _atom_site_label
 _atom_site_symmetry_multiplicity
 _atom_site_fract_x
 _atom_site_fract_y
 _atom_site_fract_z
 _atom_site_occupancy
  Zn  Zn0  1  0.00000000  0.50000000  0.00000000  1
  Zn  Zn1  1  0.50000000  0.50000000  0.50000000  1
  Co  Co2  1  0.13180000  0.81375000  0.51908400  1
  Co  Co3  1  0.63180000  0.18625000  0.98091600  1
  Co  Co4  1  0.86820000  0.18625000  0.48091600  1
  Co  Co5  1  0.36820000  0.81375000  0.01908400  1
  Co  Co6  1  0.00000000  0.00000000  0.00000000  1
  Co  Co7  1  0.50000000  0.00000000  0.50000000  1
  P  P8  1  0.92763900  0.41715900  0.70466700  1
  P  P9  1  0.42763900  0.58284100  0.79533300  1
  P  P10  1  0.07236100  0.58284100  0.29533300  1
  P  P11  1  0.57236100  0.41715900  0.20466700  1
  P  P12  1  0.20770100  0.13468700  0.68795400  1
  P  P13  1  0.70770100  0.86531300  0.81204600  1
  P  P14  1  0.79229900  0.86531300  0.31204600  1
  P  P15  1  0.29229900  0.13468700  0.18795400  1
  O  O16  1  0.38428400  0.19556000  0.60241800  1
  O  O17  1  0.88428400  0.80444000  0.89758200  1
  O  O18  1  0.61571600  0.80444000  0.39758200  1
  O  O19  1  0.11571600  0.19556000  0.10241800  1
  O  O20  1  0.38720500  0.70255200  0.62491800  1
  O  O21  1  0.88720500  0.29744800  0.87508200  1
  O  O22  1  0.61279500  0.29744800  0.37508200  1
  O  O23  1  0.11279500  0.70255200  0.12491800  1
  O  O24  1  0.79307600  0.37643300  0.60002900  1
  O  O25  1  0.29307600  0.62356700  0.89997100  1
  O  O26  1  0.20692400  0.62356700  0.39997100  1
  O  O27  1  0.70692400  0.37643300  0.10002900  1
  O  O28  1  0.11702000  0.33994400  0.67196900  1
  O  O29  1  0.61702000  0.66005600  0.82803100  1
  O  O30  1  0.88298000  0.66005600  0.32803100  1
  O  O31  1  0.38298000  0.33994400  0.17196900  1
  O  O32  1  0.53131400  0.63052500  0.18225600  1
  O  O33  1  0.03131400  0.36947500  0.31774400  1
  O  O34  1  0.46868600  0.36947500  0.81774400  1
  O  O35  1  0.96868600  0.63052500  0.68225600  1
  O  O36  1  0.78627400  0.97954300  0.14129700  1
  O  O37  1  0.28627400  0.02045700  0.35870300  1
  O  O38  1  0.21372600  0.02045700  0.85870300  1
  O  O39  1  0.71372600  0.97954300  0.64129700  1
  O  O40  1  0.41261000  0.03238200  0.10992000  1
  O  O41  1  0.91261000  0.96761800  0.39008000  1
  O  O42  1  0.58739000  0.96761800  0.89008000  1
  O  O43  1  0.08739000  0.03238200  0.60992000  1
