# generated using pymatgen
data_Ba2MgCuMo2F14
_symmetry_space_group_name_H-M   'P 1'
_cell_length_a   5.30535201
_cell_length_b   7.67634888
_cell_length_c   15.21546796
_cell_angle_alpha   90.81633223
_cell_angle_beta   89.98697212
_cell_angle_gamma   110.12387380
_symmetry_Int_Tables_number   1
_chemical_formula_structural   Ba2MgCuMo2F14
_chemical_formula_sum   'Ba4 Mg2 Cu2 Mo4 F28'
_cell_volume   581.76511657
_cell_formula_units_Z   2
loop_
 _symmetry_equiv_pos_site_id
 _symmetry_equiv_pos_as_xyz
  1  'x, y, z'
loop_
 _atom_site_type_symbol
 _atom_site_label
 _atom_site_symmetry_multiplicity
 _atom_site_fract_x
 _atom_site_fract_y
 _atom_site_fract_z
 _atom_site_occupancy
  Ba  Ba0  1  0.09334300  0.36417600  0.62401000  1
  Ba  Ba1  1  0.27217200  0.36405900  0.12410200  1
  Ba  Ba2  1  0.90721000  0.63669800  0.37662200  1
  Ba  Ba3  1  0.72899200  0.63573100  0.87638000  1
  Mg  Mg4  1  0.43884200  0.00149500  0.75009600  1
  Mg  Mg5  1  0.56191500  0.99986000  0.25044300  1
  Cu  Cu6  1  0.50072300  0.00015800  0.00024000  1
  Cu  Cu7  1  0.49959000  0.00028500  0.50049700  1
  Mo  Mo8  1  0.09446000  0.23743100  0.87358900  1
  Mo  Mo9  1  0.90685400  0.76246700  0.12686600  1
  Mo  Mo10  1  0.14378000  0.23849800  0.37368600  1
  Mo  Mo11  1  0.85625200  0.76218500  0.62699500  1
  F  F12  1  0.86273200  0.97927900  0.33419400  1
  F  F13  1  0.86260200  0.29170000  0.45722900  1
  F  F14  1  0.13779900  0.70957300  0.54338300  1
  F  F15  1  0.62378200  0.48904600  0.59697500  1
  F  F16  1  0.62345600  0.07810400  0.61879900  1
  F  F17  1  0.54599800  0.92344500  0.88166100  1
  F  F18  1  0.42810100  0.28977500  0.95730500  1
  F  F19  1  0.88647100  0.02191700  0.16689300  1
  F  F20  1  0.36874800  0.34509200  0.77219800  1
  F  F21  1  0.37690000  0.51146300  0.40375000  1
  F  F22  1  0.78619100  0.21434100  0.77980600  1
  F  F23  1  0.13667100  0.51127500  0.90325600  1
  F  F24  1  0.42874500  0.21369300  0.27992600  1
  F  F25  1  0.21537200  0.78650100  0.22081300  1
  F  F26  1  0.45562200  0.07719300  0.11884800  1
  F  F27  1  0.63252300  0.65303700  0.22805000  1
  F  F28  1  0.12144900  0.84285500  0.00729800  1
  F  F29  1  0.13676500  0.02144400  0.66645300  1
  F  F30  1  0.87982300  0.15794900  0.99321000  1
  F  F31  1  0.72180200  0.84280900  0.50748600  1
  F  F32  1  0.57322000  0.70990200  0.04312400  1
  F  F33  1  0.57110200  0.78680700  0.72068200  1
  F  F34  1  0.98004600  0.34874400  0.27234400  1
  F  F35  1  0.27758400  0.15786000  0.49333200  1
  F  F36  1  0.37633400  0.92291800  0.38211300  1
  F  F37  1  0.11379700  0.97756200  0.83374000  1
  F  F38  1  0.02036200  0.65174200  0.72815300  1
  F  F39  1  0.86660700  0.48938600  0.09642800  1
