# generated using pymatgen
data_Zn(FeO2)2
_symmetry_space_group_name_H-M   'P 1'
_cell_length_a   5.99808803
_cell_length_b   6.00644099
_cell_length_c   5.98949876
_cell_angle_alpha   90.06980954
_cell_angle_beta   119.92775922
_cell_angle_gamma   119.99750859
_symmetry_Int_Tables_number   1
_chemical_formula_structural   Zn(FeO2)2
_chemical_formula_sum   'Zn2 Fe4 O8'
_cell_volume   152.66202435
_cell_formula_units_Z   2
loop_
 _symmetry_equiv_pos_site_id
 _symmetry_equiv_pos_as_xyz
  1  'x, y, z'
loop_
 _atom_site_type_symbol
 _atom_site_label
 _atom_site_symmetry_multiplicity
 _atom_site_fract_x
 _atom_site_fract_y
 _atom_site_fract_z
 _atom_site_occupancy
  Zn  Zn0  1  0.25451700  0.12734600  0.88160500  1
  Zn  Zn1  1  0.74548100  0.87265700  0.11842400  1
  Fe  Fe2  1  0.50002900  0.00005800  0.49998900  1
  Fe  Fe3  1  0.50003400  0.49997200  0.49999700  1
  Fe  Fe4  1  0.99999400  0.49999800  0.99999400  1
  Fe  Fe5  1  0.99992000  0.49995900  0.49995500  1
  O  O6  1  0.01797600  0.73509200  0.25231100  1
  O  O7  1  0.47615600  0.73830600  0.71577700  1
  O  O8  1  0.47268900  0.73609500  0.25541900  1
  O  O9  1  0.98219500  0.71711200  0.74872900  1
  O  O10  1  0.52729600  0.26389300  0.74456700  1
  O  O11  1  0.52390900  0.26172600  0.28431700  1
  O  O12  1  0.01779800  0.28287600  0.25125200  1
  O  O13  1  0.98200900  0.26490900  0.74766600  1
