# generated using pymatgen
data_Ca2Ag2O5
_symmetry_space_group_name_H-M   'P 1'
_cell_length_a   4.09242000
_cell_length_b   5.96285400
_cell_length_c   9.84491300
_cell_angle_alpha   90.00000000
_cell_angle_beta   90.00000000
_cell_angle_gamma   90.00000000
_symmetry_Int_Tables_number   1
_chemical_formula_structural   Ca2Ag2O5
_chemical_formula_sum   'Ca4 Ag4 O10'
_cell_volume   240.24051869
_cell_formula_units_Z   2
loop_
 _symmetry_equiv_pos_site_id
 _symmetry_equiv_pos_as_xyz
  1  'x, y, z'
loop_
 _atom_site_type_symbol
 _atom_site_label
 _atom_site_symmetry_multiplicity
 _atom_site_fract_x
 _atom_site_fract_y
 _atom_site_fract_z
 _atom_site_occupancy
  Ca  Ca0  1  0.50000000  0.65611100  0.86095300  1
  Ca  Ca1  1  0.50000000  0.34388900  0.13904700  1
  Ca  Ca2  1  0.50000000  0.15611100  0.63904700  1
  Ca  Ca3  1  0.50000000  0.84388900  0.36095300  1
  Ag  Ag4  1  0.00000000  0.69146500  0.60046500  1
  Ag  Ag5  1  0.00000000  0.30853500  0.39953500  1
  Ag  Ag6  1  0.00000000  0.80853500  0.10046500  1
  Ag  Ag7  1  0.00000000  0.19146500  0.89953500  1
  O  O8  1  0.00000000  0.00000000  0.50000000  1
  O  O9  1  0.00000000  0.62816700  0.31995300  1
  O  O10  1  0.00000000  0.12816700  0.18004700  1
  O  O11  1  0.00000000  0.87183300  0.81995300  1
  O  O12  1  0.50000000  0.75936200  0.11426400  1
  O  O13  1  0.50000000  0.24063800  0.88573600  1
  O  O14  1  0.00000000  0.37183300  0.68004700  1
  O  O15  1  0.50000000  0.74063800  0.61426400  1
  O  O16  1  0.00000000  0.50000000  0.00000000  1
  O  O17  1  0.50000000  0.25936200  0.38573600  1
