# generated using pymatgen
data_ZnSnP2O7
_symmetry_space_group_name_H-M   'P 1'
_cell_length_a   6.69678300
_cell_length_b   6.85652704
_cell_length_c   7.03488463
_cell_angle_alpha   85.47887923
_cell_angle_beta   79.93251583
_cell_angle_gamma   66.71017555
_symmetry_Int_Tables_number   1
_chemical_formula_structural   ZnSnP2O7
_chemical_formula_sum   'Zn2 Sn2 P4 O14'
_cell_volume   292.11262792
_cell_formula_units_Z   2
loop_
 _symmetry_equiv_pos_site_id
 _symmetry_equiv_pos_as_xyz
  1  'x, y, z'
loop_
 _atom_site_type_symbol
 _atom_site_label
 _atom_site_symmetry_multiplicity
 _atom_site_fract_x
 _atom_site_fract_y
 _atom_site_fract_z
 _atom_site_occupancy
  Zn  Zn0  1  0.40459300  0.65272000  0.68744300  1
  Zn  Zn1  1  0.59540700  0.34728000  0.31255700  1
  Sn  Sn2  1  0.26093100  0.11544500  0.15443200  1
  Sn  Sn3  1  0.73906900  0.88455500  0.84556800  1
  P  P4  1  0.17481400  0.66619100  0.12581600  1
  P  P5  1  0.82518600  0.33380900  0.87418400  1
  P  P6  1  0.25335800  0.22477900  0.61549700  1
  P  P7  1  0.74664200  0.77522100  0.38450300  1
  O  O8  1  0.15431500  0.72419700  0.91009900  1
  O  O9  1  0.84568500  0.27580300  0.08990100  1
  O  O10  1  0.19610900  0.83163500  0.24304600  1
  O  O11  1  0.80389100  0.16836500  0.75695400  1
  O  O12  1  0.35263000  0.44504700  0.15057700  1
  O  O13  1  0.64737000  0.55495300  0.84942300  1
  O  O14  1  0.61031300  0.63206200  0.42653700  1
  O  O15  1  0.38968700  0.36793800  0.57346300  1
  O  O16  1  0.13974300  0.21752300  0.44750100  1
  O  O17  1  0.86025700  0.78247700  0.55249900  1
  O  O18  1  0.05786800  0.35410000  0.78643200  1
  O  O19  1  0.61863600  0.99577300  0.30191600  1
  O  O20  1  0.38136400  0.00422700  0.69808400  1
  O  O21  1  0.94213200  0.64590000  0.21356800  1
