# generated using pymatgen
data_CaWF5
_symmetry_space_group_name_H-M   'P 1'
_cell_length_a   10.85963900
_cell_length_b   5.71659800
_cell_length_c   7.97467333
_cell_angle_alpha   70.17761882
_cell_angle_beta   90.00000000
_cell_angle_gamma   90.00000000
_symmetry_Int_Tables_number   1
_chemical_formula_structural   CaWF5
_chemical_formula_sum   'Ca4 W4 F20'
_cell_volume   465.73558470
_cell_formula_units_Z   4
loop_
 _symmetry_equiv_pos_site_id
 _symmetry_equiv_pos_as_xyz
  1  'x, y, z'
loop_
 _atom_site_type_symbol
 _atom_site_label
 _atom_site_symmetry_multiplicity
 _atom_site_fract_x
 _atom_site_fract_y
 _atom_site_fract_z
 _atom_site_occupancy
  Ca  Ca0  1  0.01504000  0.52701800  0.74648200  1
  Ca  Ca1  1  0.51504000  0.47298200  0.75351800  1
  Ca  Ca2  1  0.98496000  0.47298200  0.25351800  1
  Ca  Ca3  1  0.48496000  0.52701800  0.24648200  1
  W  W4  1  0.75299300  0.10752400  0.59975400  1
  W  W5  1  0.25299300  0.89247600  0.90024600  1
  W  W6  1  0.24700700  0.89247600  0.40024600  1
  W  W7  1  0.74700700  0.10752400  0.09975400  1
  F  F8  1  0.88661900  0.39766300  0.55543300  1
  F  F9  1  0.38661900  0.60233700  0.94456700  1
  F  F10  1  0.11338100  0.60233700  0.44456700  1
  F  F11  1  0.61338100  0.39766300  0.05543300  1
  F  F12  1  0.60672000  0.36551100  0.50094700  1
  F  F13  1  0.10672000  0.63448900  0.99905300  1
  F  F14  1  0.39328000  0.63448900  0.49905300  1
  F  F15  1  0.89328000  0.36551100  0.00094700  1
  F  F16  1  0.39837400  0.13948100  0.80730300  1
  F  F17  1  0.89837400  0.86051900  0.69269700  1
  F  F18  1  0.60162600  0.86051900  0.19269700  1
  F  F19  1  0.10162600  0.13948100  0.30730300  1
  F  F20  1  0.13078600  0.18982300  0.85129800  1
  F  F21  1  0.63078600  0.81017700  0.64870200  1
  F  F22  1  0.86921400  0.81017700  0.14870200  1
  F  F23  1  0.36921400  0.18982300  0.35129800  1
  F  F24  1  0.68261700  0.14138200  0.84026800  1
  F  F25  1  0.18261700  0.85861800  0.65973200  1
  F  F26  1  0.31738300  0.85861800  0.15973200  1
  F  F27  1  0.81738300  0.14138200  0.34026800  1
