# generated using pymatgen
data_SbN
_symmetry_space_group_name_H-M   'P 1'
_cell_length_a   3.32250000
_cell_length_b   3.91013405
_cell_length_c   5.99156503
_cell_angle_alpha   91.30605771
_cell_angle_beta   91.55299746
_cell_angle_gamma   90.21702832
_symmetry_Int_Tables_number   1
_chemical_formula_structural   SbN
_chemical_formula_sum   'Sb2 N2'
_cell_volume   77.78937798
_cell_formula_units_Z   2
loop_
 _symmetry_equiv_pos_site_id
 _symmetry_equiv_pos_as_xyz
  1  'x, y, z'
loop_
 _atom_site_type_symbol
 _atom_site_label
 _atom_site_symmetry_multiplicity
 _atom_site_fract_x
 _atom_site_fract_y
 _atom_site_fract_z
 _atom_site_occupancy
  Sb  Sb0  1  0.63836800  0.79577000  0.95560600  1
  Sb  Sb1  1  0.11824400  0.27928100  0.54170300  1
  N  N2  1  0.62112500  0.97044100  0.62519900  1
  N  N3  1  0.13296700  0.48092600  0.87219200  1
