# generated using pymatgen
data_CaFeF4
_symmetry_space_group_name_H-M   'P 1'
_cell_length_a   6.64895561
_cell_length_b   6.64895561
_cell_length_c   6.64895561
_cell_angle_alpha   131.10586964
_cell_angle_beta   131.10586964
_cell_angle_gamma   71.64492831
_symmetry_Int_Tables_number   1
_chemical_formula_structural   CaFeF4
_chemical_formula_sum   'Ca2 Fe2 F8'
_cell_volume   163.28389226
_cell_formula_units_Z   2
loop_
 _symmetry_equiv_pos_site_id
 _symmetry_equiv_pos_as_xyz
  1  'x, y, z'
loop_
 _atom_site_type_symbol
 _atom_site_label
 _atom_site_symmetry_multiplicity
 _atom_site_fract_x
 _atom_site_fract_y
 _atom_site_fract_z
 _atom_site_occupancy
  Ca  Ca0  1  0.75000000  0.75000000  0.00000000  1
  Ca  Ca1  1  0.25000000  0.25000000  0.00000000  1
  Fe  Fe2  1  0.00000000  0.50000000  0.50000000  1
  Fe  Fe3  1  0.50000000  0.00000000  0.50000000  1
  F  F4  1  0.94189200  0.44189200  0.12528100  1
  F  F5  1  0.68339000  0.18339000  0.12528100  1
  F  F6  1  0.05810800  0.55810800  0.87471900  1
  F  F7  1  0.55810800  0.68339000  0.50000000  1
  F  F8  1  0.31661000  0.81661000  0.87471900  1
  F  F9  1  0.81661000  0.94189200  0.50000000  1
  F  F10  1  0.44189200  0.31661000  0.50000000  1
  F  F11  1  0.18339000  0.05810800  0.50000000  1
