# generated using pymatgen
data_As2WO7
_symmetry_space_group_name_H-M   'P 1'
_cell_length_a   9.53655300
_cell_length_b   7.40835800
_cell_length_c   10.10886518
_cell_angle_alpha   85.60599903
_cell_angle_beta   90.00000000
_cell_angle_gamma   90.00000000
_symmetry_Int_Tables_number   1
_chemical_formula_structural   As2WO7
_chemical_formula_sum   'As8 W4 O28'
_cell_volume   712.09416228
_cell_formula_units_Z   4
loop_
 _symmetry_equiv_pos_site_id
 _symmetry_equiv_pos_as_xyz
  1  'x, y, z'
loop_
 _atom_site_type_symbol
 _atom_site_label
 _atom_site_symmetry_multiplicity
 _atom_site_fract_x
 _atom_site_fract_y
 _atom_site_fract_z
 _atom_site_occupancy
  As  As0  1  0.77246100  0.59738000  0.76724500  1
  As  As1  1  0.27246100  0.40262000  0.73275500  1
  As  As2  1  0.22753900  0.40262000  0.23275500  1
  As  As3  1  0.72753900  0.59738000  0.26724500  1
  As  As4  1  0.75902400  0.87448800  0.00588000  1
  As  As5  1  0.25902400  0.12551200  0.49412000  1
  As  As6  1  0.24097600  0.12551200  0.99412000  1
  As  As7  1  0.74097600  0.87448800  0.50588000  1
  W  W8  1  0.95674300  0.19559400  0.69554400  1
  W  W9  1  0.45674300  0.80440600  0.80445600  1
  W  W10  1  0.04325700  0.80440600  0.30445600  1
  W  W11  1  0.54325700  0.19559400  0.19554400  1
  O  O12  1  0.65919600  0.11800200  0.07075200  1
  O  O13  1  0.15919600  0.88199800  0.42924800  1
  O  O14  1  0.34080400  0.88199800  0.92924800  1
  O  O15  1  0.84080400  0.11800200  0.57075200  1
  O  O16  1  0.59155000  0.60124000  0.75243500  1
  O  O17  1  0.09155000  0.39876000  0.74756500  1
  O  O18  1  0.40845000  0.39876000  0.24756500  1
  O  O19  1  0.90845000  0.60124000  0.25243500  1
  O  O20  1  0.82804500  0.64623700  0.92060900  1
  O  O21  1  0.32804500  0.35376300  0.57939100  1
  O  O22  1  0.17195500  0.35376300  0.07939100  1
  O  O23  1  0.67195500  0.64623700  0.42060900  1
  O  O24  1  0.84766100  0.73264200  0.63686000  1
  O  O25  1  0.34766100  0.26735800  0.86314000  1
  O  O26  1  0.15233900  0.26735800  0.36314000  1
  O  O27  1  0.65233900  0.73264200  0.13686000  1
  O  O28  1  0.87645800  0.89512500  0.38383800  1
  O  O29  1  0.37645800  0.10487500  0.11616200  1
  O  O30  1  0.12354200  0.10487500  0.61616200  1
  O  O31  1  0.62354200  0.89512500  0.88383800  1
  O  O32  1  0.68193800  0.37842800  0.24132000  1
  O  O33  1  0.18193800  0.62157200  0.25868000  1
  O  O34  1  0.31806200  0.62157200  0.75868000  1
  O  O35  1  0.81806200  0.37842800  0.74132000  1
  O  O36  1  0.55670400  0.03765500  0.33189800  1
  O  O37  1  0.05670400  0.96234500  0.16810200  1
  O  O38  1  0.44329600  0.96234500  0.66810200  1
  O  O39  1  0.94329600  0.03765500  0.83189800  1
