# generated using pymatgen
data_CaCoF5
_symmetry_space_group_name_H-M   'P 1'
_cell_length_a   10.09117700
_cell_length_b   5.57559200
_cell_length_c   7.67061272
_cell_angle_alpha   70.03599692
_cell_angle_beta   90.00000000
_cell_angle_gamma   90.00000000
_symmetry_Int_Tables_number   1
_chemical_formula_structural   CaCoF5
_chemical_formula_sum   'Ca4 Co4 F20'
_cell_volume   405.64665173
_cell_formula_units_Z   4
loop_
 _symmetry_equiv_pos_site_id
 _symmetry_equiv_pos_as_xyz
  1  'x, y, z'
loop_
 _atom_site_type_symbol
 _atom_site_label
 _atom_site_symmetry_multiplicity
 _atom_site_fract_x
 _atom_site_fract_y
 _atom_site_fract_z
 _atom_site_occupancy
  Ca  Ca0  1  0.02058300  0.52939300  0.74365500  1
  Ca  Ca1  1  0.52058300  0.47060700  0.75634500  1
  Ca  Ca2  1  0.97941700  0.47060700  0.25634500  1
  Ca  Ca3  1  0.47941700  0.52939300  0.24365500  1
  Co  Co4  1  0.75351500  0.10656200  0.59930800  1
  Co  Co5  1  0.25351500  0.89343800  0.90069200  1
  Co  Co6  1  0.24648500  0.89343800  0.40069200  1
  Co  Co7  1  0.74648500  0.10656200  0.09930800  1
  F  F8  1  0.88203300  0.38814900  0.55584400  1
  F  F9  1  0.38203300  0.61185100  0.94415600  1
  F  F10  1  0.11796700  0.61185100  0.44415600  1
  F  F11  1  0.61796700  0.38814900  0.05584400  1
  F  F12  1  0.61422300  0.35455900  0.50643000  1
  F  F13  1  0.11422300  0.64544100  0.99357000  1
  F  F14  1  0.38577700  0.64544100  0.49357000  1
  F  F15  1  0.88577700  0.35455900  0.00643000  1
  F  F16  1  0.39247500  0.11836100  0.81173300  1
  F  F17  1  0.89247500  0.88163900  0.68826700  1
  F  F18  1  0.60752500  0.88163900  0.18826700  1
  F  F19  1  0.10752500  0.11836100  0.31173300  1
  F  F20  1  0.13775400  0.17067200  0.85941200  1
  F  F21  1  0.63775400  0.82932800  0.64058800  1
  F  F22  1  0.86224600  0.82932800  0.14058800  1
  F  F23  1  0.36224600  0.17067200  0.35941200  1
  F  F24  1  0.70163100  0.15492600  0.83669600  1
  F  F25  1  0.20163100  0.84507400  0.66330400  1
  F  F26  1  0.29836900  0.84507400  0.16330400  1
  F  F27  1  0.79836900  0.15492600  0.33669600  1
