# generated using pymatgen
data_CaTi4O9
_symmetry_space_group_name_H-M   'P 1'
_cell_length_a   8.52109900
_cell_length_b   8.52109900
_cell_length_c   5.23117800
_cell_angle_alpha   90.00000000
_cell_angle_beta   90.00000000
_cell_angle_gamma   90.00000000
_symmetry_Int_Tables_number   1
_chemical_formula_structural   CaTi4O9
_chemical_formula_sum   'Ca2 Ti8 O18'
_cell_volume   379.83127387
_cell_formula_units_Z   2
loop_
 _symmetry_equiv_pos_site_id
 _symmetry_equiv_pos_as_xyz
  1  'x, y, z'
loop_
 _atom_site_type_symbol
 _atom_site_label
 _atom_site_symmetry_multiplicity
 _atom_site_fract_x
 _atom_site_fract_y
 _atom_site_fract_z
 _atom_site_occupancy
  Ca  Ca0  1  0.00000000  0.50000000  0.13345400  1
  Ca  Ca1  1  0.50000000  0.00000000  0.86654600  1
  Ti  Ti2  1  0.08988500  0.78287500  0.61982400  1
  Ti  Ti3  1  0.21712500  0.08988500  0.38017600  1
  Ti  Ti4  1  0.71712500  0.58988500  0.61982400  1
  Ti  Ti5  1  0.58988500  0.28287500  0.38017600  1
  Ti  Ti6  1  0.91011500  0.21712500  0.61982400  1
  Ti  Ti7  1  0.28287500  0.41011500  0.61982400  1
  Ti  Ti8  1  0.41011500  0.71712500  0.38017600  1
  Ti  Ti9  1  0.78287500  0.91011500  0.38017600  1
  O  O10  1  0.00000000  0.00000000  0.50000000  1
  O  O11  1  0.50000000  0.50000000  0.50000000  1
  O  O12  1  0.74050500  0.93052900  0.06957100  1
  O  O13  1  0.43052900  0.75949500  0.06957100  1
  O  O14  1  0.56947100  0.24050500  0.06957100  1
  O  O15  1  0.25949500  0.06947100  0.06957100  1
  O  O16  1  0.75949500  0.56947100  0.93042900  1
  O  O17  1  0.06947100  0.74050500  0.93042900  1
  O  O18  1  0.93052900  0.25949500  0.93042900  1
  O  O19  1  0.24050500  0.43052900  0.93042900  1
  O  O20  1  0.10611300  0.29391100  0.46354600  1
  O  O21  1  0.79391100  0.39388700  0.46354600  1
  O  O22  1  0.20608900  0.60611300  0.46354600  1
  O  O23  1  0.89388700  0.70608900  0.46354600  1
  O  O24  1  0.60611300  0.79391100  0.53645400  1
  O  O25  1  0.70608900  0.10611300  0.53645400  1
  O  O26  1  0.29391100  0.89388700  0.53645400  1
  O  O27  1  0.39388700  0.20608900  0.53645400  1
