# generated using pymatgen
data_MgVF5
_symmetry_space_group_name_H-M   'P 1'
_cell_length_a   9.77243100
_cell_length_b   5.19243400
_cell_length_c   7.56613058
_cell_angle_alpha   69.64425761
_cell_angle_beta   90.00000000
_cell_angle_gamma   90.00000000
_symmetry_Int_Tables_number   1
_chemical_formula_structural   MgVF5
_chemical_formula_sum   'Mg4 V4 F20'
_cell_volume   359.95011242
_cell_formula_units_Z   4
loop_
 _symmetry_equiv_pos_site_id
 _symmetry_equiv_pos_as_xyz
  1  'x, y, z'
loop_
 _atom_site_type_symbol
 _atom_site_label
 _atom_site_symmetry_multiplicity
 _atom_site_fract_x
 _atom_site_fract_y
 _atom_site_fract_z
 _atom_site_occupancy
  Mg  Mg0  1  0.01181500  0.52539900  0.75177400  1
  Mg  Mg1  1  0.51181500  0.47460100  0.74822600  1
  Mg  Mg2  1  0.98818500  0.47460100  0.24822600  1
  Mg  Mg3  1  0.48818500  0.52539900  0.25177400  1
  V  V4  1  0.75327800  0.10448000  0.60210700  1
  V  V5  1  0.25327800  0.89552000  0.89789300  1
  V  V6  1  0.24672200  0.89552000  0.39789300  1
  V  V7  1  0.74672200  0.10448000  0.10210700  1
  F  F8  1  0.88907300  0.39376900  0.57767300  1
  F  F9  1  0.38907300  0.60623100  0.92232700  1
  F  F10  1  0.11092700  0.60623100  0.42232700  1
  F  F11  1  0.61092700  0.39376900  0.07767300  1
  F  F12  1  0.60539400  0.35954600  0.49134700  1
  F  F13  1  0.10539400  0.64045400  0.00865300  1
  F  F14  1  0.39460600  0.64045400  0.50865300  1
  F  F15  1  0.89460600  0.35954600  0.99134700  1
  F  F16  1  0.40080200  0.14869600  0.80007500  1
  F  F17  1  0.90080200  0.85130400  0.69992500  1
  F  F18  1  0.59919800  0.85130400  0.19992500  1
  F  F19  1  0.09919800  0.14869600  0.30007500  1
  F  F20  1  0.13229200  0.20938400  0.84661200  1
  F  F21  1  0.63229200  0.79061600  0.65338800  1
  F  F22  1  0.86770800  0.79061600  0.15338800  1
  F  F23  1  0.36770800  0.20938400  0.34661200  1
  F  F24  1  0.67917100  0.16473600  0.83638000  1
  F  F25  1  0.17917100  0.83526400  0.66362000  1
  F  F26  1  0.32082900  0.83526400  0.16362000  1
  F  F27  1  0.82082900  0.16473600  0.33638000  1
