# generated using pymatgen
data_CaNiO2
_symmetry_space_group_name_H-M   'P 1'
_cell_length_a   3.02210300
_cell_length_b   8.54345837
_cell_length_c   9.33180477
_cell_angle_alpha   81.66484749
_cell_angle_beta   80.70736824
_cell_angle_gamma   80.35386026
_symmetry_Int_Tables_number   1
_chemical_formula_structural   CaNiO2
_chemical_formula_sum   'Ca4 Ni4 O8'
_cell_volume   232.68830011
_cell_formula_units_Z   4
loop_
 _symmetry_equiv_pos_site_id
 _symmetry_equiv_pos_as_xyz
  1  'x, y, z'
loop_
 _atom_site_type_symbol
 _atom_site_label
 _atom_site_symmetry_multiplicity
 _atom_site_fract_x
 _atom_site_fract_y
 _atom_site_fract_z
 _atom_site_occupancy
  Ca  Ca0  1  0.83972400  0.23767700  0.56546000  1
  Ca  Ca1  1  0.16027600  0.76232300  0.43454000  1
  Ca  Ca2  1  0.58474300  0.14121900  0.18519700  1
  Ca  Ca3  1  0.41525700  0.85878100  0.81480300  1
  Ni  Ni4  1  0.13210600  0.54372600  0.69704400  1
  Ni  Ni5  1  0.71547500  0.19781300  0.86889400  1
  Ni  Ni6  1  0.28452500  0.80218700  0.13110600  1
  Ni  Ni7  1  0.86789400  0.45627400  0.30295600  1
  O  O8  1  0.32263800  0.59401000  0.26254300  1
  O  O9  1  0.85114700  0.81472800  0.98450000  1
  O  O10  1  0.14885300  0.18527200  0.01550000  1
  O  O11  1  0.67736200  0.40599000  0.73745700  1
  O  O12  1  0.59411100  0.69441400  0.63134000  1
  O  O13  1  0.32162200  0.11323700  0.71899500  1
  O  O14  1  0.40588900  0.30558600  0.36866000  1
  O  O15  1  0.67837800  0.88676300  0.28100500  1
