# generated using pymatgen
data_MgV2O4
_symmetry_space_group_name_H-M   'P 1'
_cell_length_a   2.96603000
_cell_length_b   9.79379200
_cell_length_c   9.91403700
_cell_angle_alpha   90.00000000
_cell_angle_beta   90.00000000
_cell_angle_gamma   90.00000000
_symmetry_Int_Tables_number   1
_chemical_formula_structural   MgV2O4
_chemical_formula_sum   'Mg4 V8 O16'
_cell_volume   287.98969710
_cell_formula_units_Z   4
loop_
 _symmetry_equiv_pos_site_id
 _symmetry_equiv_pos_as_xyz
  1  'x, y, z'
loop_
 _atom_site_type_symbol
 _atom_site_label
 _atom_site_symmetry_multiplicity
 _atom_site_fract_x
 _atom_site_fract_y
 _atom_site_fract_z
 _atom_site_occupancy
  Mg  Mg0  1  0.72987100  0.86307500  0.25000000  1
  Mg  Mg1  1  0.72987100  0.63692500  0.75000000  1
  Mg  Mg2  1  0.27012900  0.36307500  0.25000000  1
  Mg  Mg3  1  0.27012900  0.13692500  0.75000000  1
  V  V4  1  0.24032000  0.61782000  0.42675900  1
  V  V5  1  0.24032000  0.88218000  0.92675900  1
  V  V6  1  0.75968000  0.38218000  0.92675900  1
  V  V7  1  0.24032000  0.88218000  0.57324100  1
  V  V8  1  0.75968000  0.38218000  0.57324100  1
  V  V9  1  0.24032000  0.61782000  0.07324100  1
  V  V10  1  0.75968000  0.11782000  0.07324100  1
  V  V11  1  0.75968000  0.11782000  0.42675900  1
  O  O12  1  0.75932700  0.47799300  0.11412500  1
  O  O13  1  0.24067300  0.52200700  0.88587500  1
  O  O14  1  0.71297100  0.75000000  0.00000000  1
  O  O15  1  0.24067300  0.97799300  0.11412500  1
  O  O16  1  0.24067300  0.97799300  0.38587500  1
  O  O17  1  0.22501500  0.78582600  0.75000000  1
  O  O18  1  0.75932700  0.02200700  0.88587500  1
  O  O19  1  0.77498500  0.28582600  0.75000000  1
  O  O20  1  0.71297100  0.75000000  0.50000000  1
  O  O21  1  0.28702900  0.25000000  0.00000000  1
  O  O22  1  0.75932700  0.47799300  0.38587500  1
  O  O23  1  0.77498500  0.21417400  0.25000000  1
  O  O24  1  0.22501500  0.71417400  0.25000000  1
  O  O25  1  0.28702900  0.25000000  0.50000000  1
  O  O26  1  0.75932700  0.02200700  0.61412500  1
  O  O27  1  0.24067300  0.52200700  0.61412500  1
