# generated using pymatgen
data_CaCr2O4
_symmetry_space_group_name_H-M   'P 1'
_cell_length_a   6.33124423
_cell_length_b   6.33124423
_cell_length_c   20.73699547
_cell_angle_alpha   79.26120404
_cell_angle_beta   79.26120404
_cell_angle_gamma   58.31969845
_symmetry_Int_Tables_number   1
_chemical_formula_structural   CaCr2O4
_chemical_formula_sum   'Ca8 Cr16 O32'
_cell_volume   691.08390061
_cell_formula_units_Z   8
loop_
 _symmetry_equiv_pos_site_id
 _symmetry_equiv_pos_as_xyz
  1  'x, y, z'
loop_
 _atom_site_type_symbol
 _atom_site_label
 _atom_site_symmetry_multiplicity
 _atom_site_fract_x
 _atom_site_fract_y
 _atom_site_fract_z
 _atom_site_occupancy
  Ca  Ca0  1  0.65398400  0.65398400  0.02788700  1
  Ca  Ca1  1  0.12447900  0.12447900  0.12505300  1
  Ca  Ca2  1  0.90299100  0.90299100  0.28394400  1
  Ca  Ca3  1  0.37269500  0.37269500  0.37507600  1
  Ca  Ca4  1  0.62496300  0.62496300  0.62510500  1
  Ca  Ca5  1  0.50194200  0.50194200  0.49785900  1
  Ca  Ca6  1  0.87798400  0.87798400  0.87452200  1
  Ca  Ca7  1  0.74861500  0.74861500  0.75158800  1
  Cr  Cr8  1  0.63113400  0.12154000  0.12502600  1
  Cr  Cr9  1  0.24983700  0.24983700  0.25142700  1
  Cr  Cr10  1  0.12154000  0.63113400  0.12502600  1
  Cr  Cr11  1  0.14963400  0.14963400  0.53392500  1
  Cr  Cr12  1  0.88424000  0.37019300  0.37441200  1
  Cr  Cr13  1  0.60998000  0.60998000  0.22235400  1
  Cr  Cr14  1  0.40030200  0.40030200  0.78164100  1
  Cr  Cr15  1  0.37019300  0.88424000  0.37441200  1
  Cr  Cr16  1  0.12525800  0.62505000  0.62485900  1
  Cr  Cr17  1  0.84933700  0.84933700  0.46792800  1
  Cr  Cr18  1  0.62505000  0.12525800  0.62485900  1
  Cr  Cr19  1  0.87861100  0.37017000  0.87481900  1
  Cr  Cr20  1  0.37017000  0.87861100  0.87481900  1
  Cr  Cr21  1  0.10034600  0.10034600  0.71646100  1
  Cr  Cr22  1  0.99871300  0.99871300  0.00308500  1
  Cr  Cr23  1  0.36284200  0.36284200  0.97072500  1
  O  O24  1  0.26280600  0.81190800  0.06296400  1
  O  O25  1  0.92339600  0.92339600  0.17611300  1
  O  O26  1  0.81190800  0.26280600  0.06296400  1
  O  O27  1  0.83134800  0.83134800  0.06765100  1
  O  O28  1  0.42243400  0.42243400  0.18408200  1
  O  O29  1  0.50764000  0.06691700  0.31214100  1
  O  O30  1  0.44672900  0.95539900  0.19018800  1
  O  O31  1  0.17093000  0.17093000  0.43639600  1
  O  O32  1  0.06691700  0.50764000  0.31214100  1
  O  O33  1  0.32586200  0.32586200  0.06539700  1
  O  O34  1  0.08586700  0.08586700  0.31766500  1
  O  O35  1  0.95539900  0.44672900  0.19018800  1
  O  O36  1  0.80710100  0.29140400  0.56649800  1
  O  O37  1  0.69458500  0.69458500  0.42525800  1
  O  O38  1  0.71228500  0.18658000  0.43077400  1
  O  O39  1  0.42134000  0.42134000  0.68318000  1
  O  O40  1  0.29140400  0.80710100  0.56649800  1
  O  O41  1  0.57759500  0.57759500  0.31730600  1
  O  O42  1  0.31329800  0.31329800  0.57129400  1
  O  O43  1  0.18658000  0.71228500  0.43077400  1
  O  O44  1  0.93761400  0.93761400  0.67862300  1
  O  O45  1  0.06342000  0.53591300  0.81836600  1
  O  O46  1  0.95921100  0.44268500  0.68336100  1
  O  O47  1  0.67599700  0.67599700  0.92034500  1
  O  O48  1  0.53591300  0.06342000  0.81836600  1
  O  O49  1  0.82854100  0.82854100  0.56645100  1
  O  O50  1  0.55431500  0.55431500  0.82206300  1
  O  O51  1  0.44268500  0.95921100  0.68336100  1
  O  O52  1  0.16801500  0.16801500  0.93555400  1
  O  O53  1  0.19493600  0.71144300  0.94122700  1
  O  O54  1  0.07759700  0.07759700  0.81476800  1
  O  O55  1  0.71144300  0.19493600  0.94122700  1
