# generated using pymatgen
data_CaP3W3O13
_symmetry_space_group_name_H-M   'P 1'
_cell_length_a   6.72175400
_cell_length_b   7.86348700
_cell_length_c   10.75517696
_cell_angle_alpha   80.56493002
_cell_angle_beta   90.00000000
_cell_angle_gamma   90.00000000
_symmetry_Int_Tables_number   1
_chemical_formula_structural   CaP3W3O13
_chemical_formula_sum   'Ca2 P6 W6 O26'
_cell_volume   560.78981013
_cell_formula_units_Z   2
loop_
 _symmetry_equiv_pos_site_id
 _symmetry_equiv_pos_as_xyz
  1  'x, y, z'
loop_
 _atom_site_type_symbol
 _atom_site_label
 _atom_site_symmetry_multiplicity
 _atom_site_fract_x
 _atom_site_fract_y
 _atom_site_fract_z
 _atom_site_occupancy
  Ca  Ca0  1  0.75000000  0.35293300  0.19379700  1
  Ca  Ca1  1  0.25000000  0.64706700  0.80620300  1
  P  P2  1  0.25000000  0.78605600  0.49467100  1
  P  P3  1  0.75000000  0.21394400  0.50532900  1
  P  P4  1  0.25000000  0.26283100  0.76691300  1
  P  P5  1  0.75000000  0.73716900  0.23308700  1
  P  P6  1  0.75000000  0.68273500  0.88829900  1
  P  P7  1  0.25000000  0.31726500  0.11170100  1
  W  W8  1  0.25000000  0.63891800  0.20643800  1
  W  W9  1  0.75000000  0.36108200  0.79356200  1
  W  W10  1  0.25000000  0.23016500  0.44232900  1
  W  W11  1  0.50000000  0.00000000  0.00000000  1
  W  W12  1  0.75000000  0.76983500  0.55767100  1
  W  W13  1  0.00000000  0.00000000  0.00000000  1
  O  O14  1  0.75000000  0.64587000  0.74783700  1
  O  O15  1  0.56914400  0.24874600  0.41303800  1
  O  O16  1  0.25000000  0.19716900  0.64221700  1
  O  O17  1  0.55414300  0.77971900  0.90400400  1
  O  O18  1  0.75000000  0.34599700  0.59715700  1
  O  O19  1  0.75000000  0.12060500  0.90439200  1
  O  O20  1  0.25000000  0.65400300  0.40284300  1
  O  O21  1  0.05414300  0.22028100  0.09599600  1
  O  O22  1  0.25000000  0.97022600  0.41836500  1
  O  O23  1  0.75000000  0.02977400  0.58163500  1
  O  O24  1  0.07136200  0.38061400  0.78654500  1
  O  O25  1  0.25000000  0.87939500  0.09560800  1
  O  O26  1  0.57136200  0.61938600  0.21345500  1
  O  O27  1  0.75000000  0.49732400  0.96552400  1
  O  O28  1  0.75000000  0.80283100  0.35778300  1
  O  O29  1  0.44585700  0.22028100  0.09599600  1
  O  O30  1  0.93085600  0.24874600  0.41303800  1
  O  O31  1  0.43085600  0.75125400  0.58696200  1
  O  O32  1  0.42863800  0.38061400  0.78654500  1
  O  O33  1  0.25000000  0.35413000  0.25216300  1
  O  O34  1  0.75000000  0.90190900  0.12616200  1
  O  O35  1  0.25000000  0.09809100  0.87383800  1
  O  O36  1  0.92863800  0.61938600  0.21345500  1
  O  O37  1  0.94585700  0.77971900  0.90400400  1
  O  O38  1  0.06914400  0.75125400  0.58696200  1
  O  O39  1  0.25000000  0.50267600  0.03447600  1
