# generated using pymatgen
data_Ca3Fe4(WO4)6
_symmetry_space_group_name_H-M   'P 1'
_cell_length_a   7.36493700
_cell_length_b   8.73102362
_cell_length_c   10.59044599
_cell_angle_alpha   105.03885409
_cell_angle_beta   106.04623211
_cell_angle_gamma   103.56810513
_symmetry_Int_Tables_number   1
_chemical_formula_structural   Ca3Fe4(WO4)6
_chemical_formula_sum   'Ca3 Fe4 W6 O24'
_cell_volume   596.63689773
_cell_formula_units_Z   1
loop_
 _symmetry_equiv_pos_site_id
 _symmetry_equiv_pos_as_xyz
  1  'x, y, z'
loop_
 _atom_site_type_symbol
 _atom_site_label
 _atom_site_symmetry_multiplicity
 _atom_site_fract_x
 _atom_site_fract_y
 _atom_site_fract_z
 _atom_site_occupancy
  Ca  Ca0  1  0.00000000  0.50000000  0.50000000  1
  Ca  Ca1  1  0.29165000  0.29915100  0.79319900  1
  Ca  Ca2  1  0.70835000  0.70084900  0.20680100  1
  Fe  Fe3  1  0.37622800  0.96036200  0.60090800  1
  Fe  Fe4  1  0.62377200  0.03963800  0.39909200  1
  Fe  Fe5  1  0.04527300  0.21580800  0.01738700  1
  Fe  Fe6  1  0.95472700  0.78419200  0.98261300  1
  W  W7  1  0.78174200  0.33231600  0.72978600  1
  W  W8  1  0.21825800  0.66768400  0.27021400  1
  W  W9  1  0.89393000  0.91326100  0.67372200  1
  W  W10  1  0.39195200  0.74111200  0.86682800  1
  W  W11  1  0.10607000  0.08673900  0.32627800  1
  W  W12  1  0.60804800  0.25888800  0.13317200  1
  O  O13  1  0.85612700  0.69695200  0.58548800  1
  O  O14  1  0.14387300  0.30304800  0.41451200  1
  O  O15  1  0.24616900  0.53093800  0.73453300  1
  O  O16  1  0.75383100  0.46906200  0.26546700  1
  O  O17  1  0.78666700  0.28260200  0.54416300  1
  O  O18  1  0.21333300  0.71739800  0.45583700  1
  O  O19  1  0.67568200  0.96595000  0.58728500  1
  O  O20  1  0.32431800  0.03405000  0.41271500  1
  O  O21  1  0.62106900  0.73293900  0.98795900  1
  O  O22  1  0.37893100  0.26706100  0.01204100  1
  O  O23  1  0.48513900  0.77943900  0.29172000  1
  O  O24  1  0.51486100  0.22056100  0.70828000  1
  O  O25  1  0.12167700  0.02441000  0.65298600  1
  O  O26  1  0.07039100  0.05693100  0.14257200  1
  O  O27  1  0.92960900  0.94306900  0.85742800  1
  O  O28  1  0.55965900  0.12058400  0.22760800  1
  O  O29  1  0.44034100  0.87941600  0.77239200  1
  O  O30  1  0.17283000  0.45075800  0.15894600  1
  O  O31  1  0.82717000  0.54924200  0.84105400  1
  O  O32  1  0.99211600  0.26489800  0.82647700  1
  O  O33  1  0.00788400  0.73510200  0.17352300  1
  O  O34  1  0.23951700  0.79928600  0.96379300  1
  O  O35  1  0.76048300  0.20071400  0.03620700  1
  O  O36  1  0.87832300  0.97559000  0.34701400  1
