# generated using pymatgen
data_Y2(Mo2O7)3
_symmetry_space_group_name_H-M   'P 1'
_cell_length_a   7.39681927
_cell_length_b   7.39681927
_cell_length_c   18.20306167
_cell_angle_alpha   89.27094777
_cell_angle_beta   89.27094777
_cell_angle_gamma   59.73848587
_symmetry_Int_Tables_number   1
_chemical_formula_structural   Y2(Mo2O7)3
_chemical_formula_sum   'Y4 Mo12 O42'
_cell_volume   860.13741529
_cell_formula_units_Z   2
loop_
 _symmetry_equiv_pos_site_id
 _symmetry_equiv_pos_as_xyz
  1  'x, y, z'
loop_
 _atom_site_type_symbol
 _atom_site_label
 _atom_site_symmetry_multiplicity
 _atom_site_fract_x
 _atom_site_fract_y
 _atom_site_fract_z
 _atom_site_occupancy
  Y  Y0  1  0.82640200  0.82640200  0.65694400  1
  Y  Y1  1  0.17359800  0.17359800  0.34305600  1
  Y  Y2  1  0.64115700  0.64115700  0.83085900  1
  Y  Y3  1  0.35884300  0.35884300  0.16914100  1
  Mo  Mo4  1  0.15763000  0.15763000  0.82560200  1
  Mo  Mo5  1  0.50000000  0.50000000  0.50000000  1
  Mo  Mo6  1  0.84237000  0.84237000  0.17439800  1
  Mo  Mo7  1  0.15443900  0.66241400  0.84094600  1
  Mo  Mo8  1  0.50000000  0.00000000  0.50000000  1
  Mo  Mo9  1  0.84556100  0.33758600  0.15905400  1
  Mo  Mo10  1  0.34167800  0.34167800  0.66905600  1
  Mo  Mo11  1  0.65832200  0.65832200  0.33094400  1
  Mo  Mo12  1  0.00000000  0.00000000  0.00000000  1
  Mo  Mo13  1  0.66241400  0.15443900  0.84094600  1
  Mo  Mo14  1  0.00000000  0.50000000  0.50000000  1
  Mo  Mo15  1  0.33758600  0.84556100  0.15905400  1
  O  O16  1  0.98932000  0.98932000  0.63326500  1
  O  O17  1  0.30509400  0.30509400  0.27667600  1
  O  O18  1  0.67273600  0.67273600  0.94335900  1
  O  O19  1  0.69490600  0.69490600  0.72332400  1
  O  O20  1  0.01068000  0.01068000  0.36673500  1
  O  O21  1  0.32726400  0.32726400  0.05664100  1
  O  O22  1  0.20722100  0.20722100  0.73078500  1
  O  O23  1  0.54583800  0.54583800  0.39778500  1
  O  O24  1  0.88816800  0.88816800  0.06834600  1
  O  O25  1  0.87909200  0.87909200  0.80532600  1
  O  O26  1  0.20991900  0.20991900  0.47412600  1
  O  O27  1  0.54461600  0.54461600  0.15603400  1
  O  O28  1  0.78596200  0.42709800  0.51792600  1
  O  O29  1  0.14867400  0.73615300  0.18496600  1
  O  O30  1  0.46047500  0.07741300  0.84983100  1
  O  O31  1  0.42709800  0.78596200  0.51792600  1
  O  O32  1  0.73615300  0.14867400  0.18496600  1
  O  O33  1  0.07741300  0.46047500  0.84983100  1
  O  O34  1  0.57670300  0.19402300  0.72469900  1
  O  O35  1  0.91614200  0.53758900  0.39885400  1
  O  O36  1  0.25392400  0.88645200  0.06512800  1
  O  O37  1  0.19402300  0.57670300  0.72469900  1
  O  O38  1  0.53758900  0.91614200  0.39885400  1
  O  O39  1  0.88645200  0.25392400  0.06512800  1
  O  O40  1  0.79008100  0.79008100  0.52587400  1
  O  O41  1  0.12090800  0.12090800  0.19467400  1
  O  O42  1  0.45538400  0.45538400  0.84396600  1
  O  O43  1  0.08385800  0.46241100  0.60114600  1
  O  O44  1  0.42329700  0.80597700  0.27530100  1
  O  O45  1  0.74607600  0.11354800  0.93487200  1
  O  O46  1  0.26384700  0.85132600  0.81503400  1
  O  O47  1  0.57290200  0.21403800  0.48207400  1
  O  O48  1  0.92258700  0.53952500  0.15016900  1
  O  O49  1  0.85132600  0.26384700  0.81503400  1
  O  O50  1  0.21403800  0.57290200  0.48207400  1
  O  O51  1  0.53952500  0.92258700  0.15016900  1
  O  O52  1  0.46241100  0.08385800  0.60114600  1
  O  O53  1  0.80597700  0.42329700  0.27530100  1
  O  O54  1  0.11354800  0.74607600  0.93487200  1
  O  O55  1  0.45416200  0.45416200  0.60221500  1
  O  O56  1  0.79277900  0.79277900  0.26921500  1
  O  O57  1  0.11183200  0.11183200  0.93165400  1
