# generated using pymatgen
data_Mg(MoO2)2
_symmetry_space_group_name_H-M   'P 1'
_cell_length_a   6.39939127
_cell_length_b   6.39939127
_cell_length_c   15.46587512
_cell_angle_alpha   89.08715270
_cell_angle_beta   89.08715270
_cell_angle_gamma   59.30806108
_symmetry_Int_Tables_number   1
_chemical_formula_structural   Mg(MoO2)2
_chemical_formula_sum   'Mg6 Mo12 O24'
_cell_volume   544.55149354
_cell_formula_units_Z   6
loop_
 _symmetry_equiv_pos_site_id
 _symmetry_equiv_pos_as_xyz
  1  'x, y, z'
loop_
 _atom_site_type_symbol
 _atom_site_label
 _atom_site_symmetry_multiplicity
 _atom_site_fract_x
 _atom_site_fract_y
 _atom_site_fract_z
 _atom_site_occupancy
  Mg  Mg0  1  0.33470900  0.33470900  0.04561700  1
  Mg  Mg1  1  0.00001300  0.00001300  0.37470300  1
  Mg  Mg2  1  0.99996900  0.99996900  0.00417400  1
  Mg  Mg3  1  0.66364400  0.66364400  0.70805100  1
  Mg  Mg4  1  0.33393300  0.33393300  0.28952100  1
  Mg  Mg5  1  0.99879800  0.99879800  0.62472700  1
  Mo  Mo6  1  0.83807300  0.83807300  0.16589200  1
  Mo  Mo7  1  0.33368000  0.83570600  0.16442800  1
  Mo  Mo8  1  0.49915900  0.49915900  0.49966100  1
  Mo  Mo9  1  0.83570600  0.33368000  0.16442800  1
  Mo  Mo10  1  0.66666200  0.66666200  0.33169300  1
  Mo  Mo11  1  0.99941700  0.49907900  0.49960300  1
  Mo  Mo12  1  0.16300900  0.16300900  0.83483100  1
  Mo  Mo13  1  0.49907900  0.99941700  0.49960300  1
  Mo  Mo14  1  0.16296000  0.66335100  0.83432100  1
  Mo  Mo15  1  0.33083500  0.33083500  0.66710600  1
  Mo  Mo16  1  0.66335100  0.16296000  0.83432100  1
  Mo  Mo17  1  0.66791700  0.66791700  0.95589700  1
  O  O18  1  0.68889600  0.16197300  0.08505200  1
  O  O19  1  0.00119100  0.00119100  0.24220000  1
  O  O20  1  0.16197300  0.68889600  0.08505200  1
  O  O21  1  0.15647400  0.15647400  0.08122500  1
  O  O22  1  0.51134600  0.51134600  0.24753900  1
  O  O23  1  0.35110100  0.82699600  0.41934900  1
  O  O24  1  0.50835500  0.98177400  0.24593600  1
  O  O25  1  0.67732800  0.67732800  0.09115800  1
  O  O26  1  0.82699600  0.35110100  0.41934900  1
  O  O27  1  0.66340100  0.66340100  0.57630600  1
  O  O28  1  0.98177400  0.50835500  0.24593600  1
  O  O29  1  0.82320500  0.82320500  0.41735100  1
  O  O30  1  0.17537100  0.17537100  0.58271200  1
  O  O31  1  0.01509500  0.48929300  0.75395400  1
  O  O32  1  0.17227400  0.64635400  0.58093100  1
  O  O33  1  0.33509500  0.33509500  0.42324500  1
  O  O34  1  0.32783900  0.32783900  0.91070700  1
  O  O35  1  0.48929300  0.01509500  0.75395400  1
  O  O36  1  0.64635400  0.17227400  0.58093100  1
  O  O37  1  0.48666500  0.48666500  0.75208700  1
  O  O38  1  0.85177000  0.85177000  0.92197700  1
  O  O39  1  0.99952700  0.99952700  0.75798600  1
  O  O40  1  0.83047000  0.31095000  0.91160200  1
  O  O41  1  0.31095000  0.83047000  0.91160200  1
