# generated using pymatgen
data_CaCoMo2O7
_symmetry_space_group_name_H-M   'P 1'
_cell_length_a   15.29645400
_cell_length_b   7.17946400
_cell_length_c   11.61757212
_cell_angle_alpha   79.77039726
_cell_angle_beta   90.00000000
_cell_angle_gamma   90.00000000
_symmetry_Int_Tables_number   1
_chemical_formula_structural   CaCoMo2O7
_chemical_formula_sum   'Ca8 Co8 Mo16 O56'
_cell_volume   1255.56486475
_cell_formula_units_Z   8
loop_
 _symmetry_equiv_pos_site_id
 _symmetry_equiv_pos_as_xyz
  1  'x, y, z'
loop_
 _atom_site_type_symbol
 _atom_site_label
 _atom_site_symmetry_multiplicity
 _atom_site_fract_x
 _atom_site_fract_y
 _atom_site_fract_z
 _atom_site_occupancy
  Ca  Ca0  1  0.51760200  0.90400500  0.71768200  1
  Ca  Ca1  1  0.86902100  0.69492500  0.97316800  1
  Ca  Ca2  1  0.36902100  0.30507500  0.52683200  1
  Ca  Ca3  1  0.13097900  0.30507500  0.02683200  1
  Ca  Ca4  1  0.63097900  0.69492500  0.47316800  1
  Ca  Ca5  1  0.98239800  0.90400500  0.21768200  1
  Ca  Ca6  1  0.48239800  0.09599500  0.28231800  1
  Ca  Ca7  1  0.01760200  0.09599500  0.78231800  1
  Co  Co8  1  0.65523600  0.34523200  0.08676100  1
  Co  Co9  1  0.15523600  0.65476800  0.41323900  1
  Co  Co10  1  0.34476400  0.65476800  0.91323900  1
  Co  Co11  1  0.84476400  0.34523200  0.58676100  1
  Co  Co12  1  0.74700500  0.00818700  0.24851900  1
  Co  Co13  1  0.24700500  0.99181300  0.25148100  1
  Co  Co14  1  0.25299500  0.99181300  0.75148000  1
  Co  Co15  1  0.75299500  0.00818700  0.74852000  1
  Mo  Mo16  1  0.87559500  0.16968000  0.98538000  1
  Mo  Mo17  1  0.02734000  0.57893300  0.69715300  1
  Mo  Mo18  1  0.47266000  0.57893300  0.19715300  1
  Mo  Mo19  1  0.97266000  0.42106700  0.30284700  1
  Mo  Mo20  1  0.72444300  0.49546100  0.80163600  1
  Mo  Mo21  1  0.22444300  0.50453900  0.69836400  1
  Mo  Mo22  1  0.27555700  0.50453900  0.19836400  1
  Mo  Mo23  1  0.77555700  0.49546100  0.30163600  1
  Mo  Mo24  1  0.52734000  0.42106700  0.80284700  1
  Mo  Mo25  1  0.13673600  0.13261000  0.48439600  1
  Mo  Mo26  1  0.63673600  0.86739000  0.01560400  1
  Mo  Mo27  1  0.86326400  0.86739000  0.51560400  1
  Mo  Mo28  1  0.37559500  0.83032000  0.51462000  1
  Mo  Mo29  1  0.62440500  0.16968000  0.48538000  1
  Mo  Mo30  1  0.12440500  0.83032000  0.01462000  1
  Mo  Mo31  1  0.36326400  0.13261000  0.98439600  1
  O  O32  1  0.99272800  0.22285000  0.95615700  1
  O  O33  1  0.49272800  0.77715000  0.54384300  1
  O  O34  1  0.00727200  0.77715000  0.04384300  1
  O  O35  1  0.50727200  0.22285000  0.45615700  1
  O  O36  1  0.85817800  0.01359500  0.87289600  1
  O  O37  1  0.35817800  0.98640500  0.62710400  1
  O  O38  1  0.14182200  0.98640500  0.12710400  1
  O  O39  1  0.64182200  0.01359500  0.37289600  1
  O  O40  1  0.84927700  0.00518400  0.12289400  1
  O  O41  1  0.34927700  0.99481600  0.37710600  1
  O  O42  1  0.15072300  0.99481600  0.87710600  1
  O  O43  1  0.65072300  0.00518400  0.62289400  1
  O  O44  1  0.28209500  0.31229400  0.95588500  1
  O  O45  1  0.78209500  0.68770600  0.54411500  1
  O  O46  1  0.71790500  0.68770600  0.04411500  1
  O  O47  1  0.21790500  0.31229400  0.45588500  1
  O  O48  1  0.36475100  0.03348900  0.13813000  1
  O  O49  1  0.86475100  0.96651100  0.36187000  1
  O  O50  1  0.63524900  0.96651100  0.86187000  1
  O  O51  1  0.13524900  0.03348900  0.63813000  1
  O  O52  1  0.34398400  0.94828000  0.89809600  1
  O  O53  1  0.45316900  0.62419700  0.82190000  1
  O  O54  1  0.84398400  0.05172000  0.60190400  1
  O  O55  1  0.15601600  0.94828000  0.39809600  1
  O  O56  1  0.49696600  0.25794400  0.70917900  1
  O  O57  1  0.99696600  0.74205600  0.79082100  1
  O  O58  1  0.50303400  0.74205600  0.29082100  1
  O  O59  1  0.00303400  0.25794400  0.20917900  1
  O  O60  1  0.46869800  0.23933600  0.94904400  1
  O  O61  1  0.96869800  0.76066400  0.55095600  1
  O  O62  1  0.53130200  0.76066400  0.05095600  1
  O  O63  1  0.03130200  0.23933600  0.44904400  1
  O  O64  1  0.88973700  0.58515700  0.20209100  1
  O  O65  1  0.38973700  0.41484300  0.29790900  1
  O  O66  1  0.11026300  0.41484300  0.79790900  1
  O  O67  1  0.61026300  0.58515700  0.70209100  1
  O  O68  1  0.74096500  0.30177300  0.21064700  1
  O  O69  1  0.24096500  0.69822700  0.28935300  1
  O  O70  1  0.25903500  0.69822700  0.78935300  1
  O  O71  1  0.75903500  0.30177300  0.71064700  1
  O  O72  1  0.68556800  0.39922400  0.44591900  1
  O  O73  1  0.18556800  0.60077600  0.05408100  1
  O  O74  1  0.31443200  0.60077600  0.55408100  1
  O  O75  1  0.81443200  0.39922400  0.94591900  1
  O  O76  1  0.71891300  0.73156300  0.29555400  1
  O  O77  1  0.21891300  0.26843700  0.20444600  1
  O  O78  1  0.28108700  0.26843700  0.70444600  1
  O  O79  1  0.78108700  0.73156300  0.79555400  1
  O  O80  1  0.87182000  0.40680800  0.41607900  1
  O  O81  1  0.37182000  0.59319200  0.08392100  1
  O  O82  1  0.12818000  0.59319200  0.58392100  1
  O  O83  1  0.62818000  0.40680800  0.91607900  1
  O  O84  1  0.04683100  0.62419700  0.32190000  1
  O  O85  1  0.54683100  0.37580300  0.17810000  1
  O  O86  1  0.95316900  0.37580300  0.67810000  1
  O  O87  1  0.65601600  0.05172000  0.10190400  1
