# generated using pymatgen
data_Fe(GeO3)2
_symmetry_space_group_name_H-M   'P 1'
_cell_length_a   8.84647900
_cell_length_b   5.42657600
_cell_length_c   10.27945457
_cell_angle_alpha   75.71329331
_cell_angle_beta   90.00000000
_cell_angle_gamma   90.00000000
_symmetry_Int_Tables_number   1
_chemical_formula_structural   Fe(GeO3)2
_chemical_formula_sum   'Fe4 Ge8 O24'
_cell_volume   478.21468803
_cell_formula_units_Z   4
loop_
 _symmetry_equiv_pos_site_id
 _symmetry_equiv_pos_as_xyz
  1  'x, y, z'
loop_
 _atom_site_type_symbol
 _atom_site_label
 _atom_site_symmetry_multiplicity
 _atom_site_fract_x
 _atom_site_fract_y
 _atom_site_fract_z
 _atom_site_occupancy
  Fe  Fe0  1  0.65687600  0.02876600  0.23103600  1
  Fe  Fe1  1  0.15687600  0.47123400  0.76896400  1
  Fe  Fe2  1  0.34312400  0.97123400  0.76896400  1
  Fe  Fe3  1  0.84312400  0.52876600  0.23103600  1
  Ge  Ge4  1  0.33739700  0.15831800  0.05515300  1
  Ge  Ge5  1  0.83739700  0.34168200  0.94484700  1
  Ge  Ge6  1  0.66260300  0.84168200  0.94484700  1
  Ge  Ge7  1  0.16260300  0.65831800  0.05515300  1
  Ge  Ge8  1  0.34761900  0.86869000  0.48712500  1
  Ge  Ge9  1  0.84761900  0.63131000  0.51287500  1
  Ge  Ge10  1  0.65238100  0.13131000  0.51287500  1
  Ge  Ge11  1  0.15238100  0.36869000  0.48712500  1
  O  O12  1  0.29277600  0.60078100  0.42322000  1
  O  O13  1  0.79277600  0.89921900  0.57678000  1
  O  O14  1  0.70722400  0.39921900  0.57678000  1
  O  O15  1  0.20722400  0.10078100  0.42322000  1
  O  O16  1  0.29446100  0.83624000  0.12127100  1
  O  O17  1  0.79446100  0.66376000  0.87872900  1
  O  O18  1  0.70553900  0.16376000  0.87872900  1
  O  O19  1  0.20553900  0.33624000  0.12127100  1
  O  O20  1  0.96696400  0.42068500  0.40307900  1
  O  O21  1  0.46696400  0.07931500  0.59692100  1
  O  O22  1  0.03303600  0.57931500  0.59692100  1
  O  O23  1  0.53303600  0.92068500  0.40307900  1
  O  O24  1  0.98305000  0.71624700  0.11238900  1
  O  O25  1  0.48305000  0.78375300  0.88761100  1
  O  O26  1  0.01695000  0.28375300  0.88761100  1
  O  O27  1  0.51695000  0.21624700  0.11238900  1
  O  O28  1  0.32474800  0.23027900  0.87495600  1
  O  O29  1  0.82474800  0.26972100  0.12504400  1
  O  O30  1  0.67525200  0.76972100  0.12504400  1
  O  O31  1  0.17525200  0.73027900  0.87495600  1
  O  O32  1  0.30934800  0.70928000  0.66697300  1
  O  O33  1  0.80934800  0.79072000  0.33302700  1
  O  O34  1  0.69065200  0.29072000  0.33302700  1
  O  O35  1  0.19065200  0.20928000  0.66697300  1
