# generated using pymatgen
data_Mg(BiO2)2
_symmetry_space_group_name_H-M   'P 1'
_cell_length_a   6.86178104
_cell_length_b   6.86178104
_cell_length_c   16.55201200
_cell_angle_alpha   90.00000000
_cell_angle_beta   90.00000000
_cell_angle_gamma   120.00001006
_symmetry_Int_Tables_number   1
_chemical_formula_structural   Mg(BiO2)2
_chemical_formula_sum   'Mg6 Bi12 O24'
_cell_volume   674.92434192
_cell_formula_units_Z   6
loop_
 _symmetry_equiv_pos_site_id
 _symmetry_equiv_pos_as_xyz
  1  'x, y, z'
loop_
 _atom_site_type_symbol
 _atom_site_label
 _atom_site_symmetry_multiplicity
 _atom_site_fract_x
 _atom_site_fract_y
 _atom_site_fract_z
 _atom_site_occupancy
  Mg  Mg0  1  0.66666700  0.33333300  0.95634400  1
  Mg  Mg1  1  0.33333300  0.66666700  0.62360400  1
  Mg  Mg2  1  0.33333300  0.66666700  0.99824900  1
  Mg  Mg3  1  0.00000000  0.00000000  0.29397600  1
  Mg  Mg4  1  0.66666700  0.33333300  0.70864200  1
  Mg  Mg5  1  0.33333300  0.66666700  0.37474600  1
  Bi  Bi6  1  0.17129600  0.82870400  0.83564700  1
  Bi  Bi7  1  0.17129600  0.34259200  0.83564700  1
  Bi  Bi8  1  0.83330700  0.16669300  0.50128600  1
  Bi  Bi9  1  0.65740800  0.82870400  0.83564700  1
  Bi  Bi10  1  0.00000000  0.00000000  0.67036000  1
  Bi  Bi11  1  0.83330700  0.66661400  0.50128600  1
  Bi  Bi12  1  0.49863800  0.50136200  0.16576600  1
  Bi  Bi13  1  0.33338600  0.16669300  0.50128600  1
  Bi  Bi14  1  0.00272400  0.50136200  0.16576600  1
  Bi  Bi15  1  0.66666700  0.33333300  0.33264800  1
  Bi  Bi16  1  0.49863800  0.99727600  0.16576600  1
  Bi  Bi17  1  0.00000000  0.00000000  0.04737000  1
  O  O18  1  0.48979900  0.97959800  0.92155700  1
  O  O19  1  0.33333300  0.66666700  0.75049100  1
  O  O20  1  0.02040200  0.51020100  0.92155700  1
  O  O21  1  0.48979900  0.51020100  0.92155700  1
  O  O22  1  0.83138700  0.16861300  0.75015600  1
  O  O23  1  0.16771900  0.33543800  0.58310400  1
  O  O24  1  0.33722600  0.16861300  0.75015600  1
  O  O25  1  0.00000000  0.00000000  0.91634900  1
  O  O26  1  0.66456200  0.83228100  0.58310400  1
  O  O27  1  0.00000000  0.00000000  0.41838700  1
  O  O28  1  0.83138700  0.66277400  0.75015600  1
  O  O29  1  0.16771900  0.83228100  0.58310400  1
  O  O30  1  0.50061400  0.49938600  0.41471900  1
  O  O31  1  0.83859500  0.67719000  0.24836000  1
  O  O32  1  0.99877100  0.49938600  0.41471900  1
  O  O33  1  0.66666700  0.33333300  0.58412600  1
  O  O34  1  0.66666700  0.33333300  0.08008500  1
  O  O35  1  0.32281000  0.16140500  0.24836000  1
  O  O36  1  0.50061400  0.00122900  0.41471900  1
  O  O37  1  0.83859500  0.16140500  0.24836000  1
  O  O38  1  0.18904600  0.81095400  0.07798400  1
  O  O39  1  0.33333300  0.66666700  0.24899700  1
  O  O40  1  0.62190800  0.81095400  0.07798400  1
  O  O41  1  0.18904600  0.37809200  0.07798400  1
