# generated using pymatgen
data_CaMnF5
_symmetry_space_group_name_H-M   'P 1'
_cell_length_a   10.06684100
_cell_length_b   5.53962400
_cell_length_c   8.04973094
_cell_angle_alpha   68.98669204
_cell_angle_beta   90.00000000
_cell_angle_gamma   90.00000000
_symmetry_Int_Tables_number   1
_chemical_formula_structural   CaMnF5
_chemical_formula_sum   'Ca4 Mn4 F20'
_cell_volume   419.05194863
_cell_formula_units_Z   4
loop_
 _symmetry_equiv_pos_site_id
 _symmetry_equiv_pos_as_xyz
  1  'x, y, z'
loop_
 _atom_site_type_symbol
 _atom_site_label
 _atom_site_symmetry_multiplicity
 _atom_site_fract_x
 _atom_site_fract_y
 _atom_site_fract_z
 _atom_site_occupancy
  Ca  Ca0  1  0.02074600  0.53079800  0.74434800  1
  Ca  Ca1  1  0.52074600  0.46920200  0.75565200  1
  Ca  Ca2  1  0.97925400  0.46920200  0.25565200  1
  Ca  Ca3  1  0.47925400  0.53079800  0.24434800  1
  Mn  Mn4  1  0.75317700  0.11382300  0.59796000  1
  Mn  Mn5  1  0.25317700  0.88617700  0.90204000  1
  Mn  Mn6  1  0.24682300  0.88617700  0.40204000  1
  Mn  Mn7  1  0.74682300  0.11382300  0.09796000  1
  F  F8  1  0.88193300  0.38956200  0.55855600  1
  F  F9  1  0.38193300  0.61043800  0.94144400  1
  F  F10  1  0.11806700  0.61043800  0.44144400  1
  F  F11  1  0.61806700  0.38956200  0.05855600  1
  F  F12  1  0.61166700  0.35694700  0.50335900  1
  F  F13  1  0.11166700  0.64305300  0.99664100  1
  F  F14  1  0.38833300  0.64305300  0.49664100  1
  F  F15  1  0.88833300  0.35694700  0.00335900  1
  F  F16  1  0.39109100  0.12008500  0.80923300  1
  F  F17  1  0.89109100  0.87991500  0.69076700  1
  F  F18  1  0.60890900  0.87991500  0.19076700  1
  F  F19  1  0.10890900  0.12008500  0.30923300  1
  F  F20  1  0.13589700  0.16346800  0.86200900  1
  F  F21  1  0.63589700  0.83653200  0.63799100  1
  F  F22  1  0.86410300  0.83653200  0.13799100  1
  F  F23  1  0.36410300  0.16346800  0.36200900  1
  F  F24  1  0.69301600  0.17231000  0.83277500  1
  F  F25  1  0.19301600  0.82769000  0.66722500  1
  F  F26  1  0.30698400  0.82769000  0.16722500  1
  F  F27  1  0.80698400  0.17231000  0.33277500  1
