# generated using pymatgen
data_Al(CoO2)2
_symmetry_space_group_name_H-M   'P 1'
_cell_length_a   6.14086606
_cell_length_b   6.14086606
_cell_length_c   5.15585630
_cell_angle_alpha   65.30611057
_cell_angle_beta   65.30611057
_cell_angle_gamma   107.32449110
_symmetry_Int_Tables_number   1
_chemical_formula_structural   Al(CoO2)2
_chemical_formula_sum   'Al2 Co4 O8'
_cell_volume   131.62629512
_cell_formula_units_Z   2
loop_
 _symmetry_equiv_pos_site_id
 _symmetry_equiv_pos_as_xyz
  1  'x, y, z'
loop_
 _atom_site_type_symbol
 _atom_site_label
 _atom_site_symmetry_multiplicity
 _atom_site_fract_x
 _atom_site_fract_y
 _atom_site_fract_z
 _atom_site_occupancy
  Al  Al0  1  0.12235400  0.87764600  0.25000000  1
  Al  Al1  1  0.87764600  0.12235400  0.75000000  1
  Co  Co2  1  0.50000000  0.50000000  0.50000000  1
  Co  Co3  1  0.50000000  0.50000000  0.00000000  1
  Co  Co4  1  0.50000000  0.00000000  0.50000000  1
  Co  Co5  1  0.00000000  0.50000000  0.00000000  1
  O  O6  1  0.89895900  0.72050200  0.74433200  1
  O  O7  1  0.27949800  0.10104100  0.75566800  1
  O  O8  1  0.10104100  0.27949800  0.25566800  1
  O  O9  1  0.72050200  0.89895900  0.24433200  1
  O  O10  1  0.14252600  0.46291500  0.63837800  1
  O  O11  1  0.53708500  0.85747400  0.86162200  1
  O  O12  1  0.46291500  0.14252600  0.13837800  1
  O  O13  1  0.85747400  0.53708500  0.36162200  1
