# generated using pymatgen
data_CuW2O7
_symmetry_space_group_name_H-M   'P 1'
_cell_length_a   9.32502500
_cell_length_b   10.68663800
_cell_length_c   11.81728913
_cell_angle_alpha   86.85367663
_cell_angle_beta   90.00000000
_cell_angle_gamma   90.00000000
_symmetry_Int_Tables_number   1
_chemical_formula_structural   CuW2O7
_chemical_formula_sum   'Cu6 W12 O42'
_cell_volume   1175.85514663
_cell_formula_units_Z   6
loop_
 _symmetry_equiv_pos_site_id
 _symmetry_equiv_pos_as_xyz
  1  'x, y, z'
loop_
 _atom_site_type_symbol
 _atom_site_label
 _atom_site_symmetry_multiplicity
 _atom_site_fract_x
 _atom_site_fract_y
 _atom_site_fract_z
 _atom_site_occupancy
  Cu  Cu0  1  0.93215800  0.41207300  0.19512600  1
  Cu  Cu1  1  0.06784200  0.58792700  0.80487400  1
  Cu  Cu2  1  0.43029200  0.25000000  0.50000000  1
  Cu  Cu3  1  0.93215800  0.08792700  0.80487400  1
  Cu  Cu4  1  0.56970800  0.75000000  0.50000000  1
  Cu  Cu5  1  0.06784200  0.91207300  0.19512600  1
  W  W6  1  0.20861800  0.29082800  0.84097200  1
  W  W7  1  0.75212300  0.38107700  0.83165400  1
  W  W8  1  0.24787700  0.88107700  0.83165400  1
  W  W9  1  0.79138200  0.79082800  0.84097200  1
  W  W10  1  0.29702700  0.96136800  0.53160700  1
  W  W11  1  0.75212300  0.11892300  0.16834600  1
  W  W12  1  0.70297300  0.46136800  0.53160700  1
  W  W13  1  0.24787700  0.61892300  0.16834600  1
  W  W14  1  0.29702700  0.53863200  0.46839300  1
  W  W15  1  0.70297300  0.03863200  0.46839300  1
  W  W16  1  0.79138200  0.70917200  0.15902800  1
  W  W17  1  0.20861800  0.20917200  0.15902800  1
  O  O18  1  0.79232700  0.95779700  0.80330800  1
  O  O19  1  0.79139900  0.28498400  0.16651400  1
  O  O20  1  0.82004200  0.75000000  0.00000000  1
  O  O21  1  0.86963100  0.10246000  0.49779200  1
  O  O22  1  0.36083200  0.58965300  0.05528300  1
  O  O23  1  0.92863000  0.71279100  0.76160500  1
  O  O24  1  0.33438800  0.93771000  0.69043200  1
  O  O25  1  0.13036900  0.60246000  0.49779200  1
  O  O26  1  0.71357500  0.87458900  0.51666200  1
  O  O27  1  0.36083200  0.91034700  0.94471700  1
  O  O28  1  0.71357500  0.62541100  0.48333800  1
  O  O29  1  0.43306500  0.87798000  0.45330100  1
  O  O30  1  0.91763300  0.03184500  0.15040400  1
  O  O31  1  0.07137000  0.21279100  0.76160500  1
  O  O32  1  0.66561200  0.06229000  0.30956800  1
  O  O33  1  0.33438800  0.56229000  0.30956800  1
  O  O34  1  0.92863000  0.78720900  0.23839500  1
  O  O35  1  0.63916800  0.41034700  0.94471700  1
  O  O36  1  0.20767300  0.45779700  0.80330800  1
  O  O37  1  0.56693500  0.12202000  0.54669900  1
  O  O38  1  0.37428300  0.26703900  0.20158200  1
  O  O39  1  0.28642500  0.12541100  0.48333800  1
  O  O40  1  0.08236700  0.53184500  0.15040400  1
  O  O41  1  0.28642500  0.37458900  0.51666200  1
  O  O42  1  0.86963100  0.39754000  0.50220800  1
  O  O43  1  0.56693500  0.37798000  0.45330100  1
  O  O44  1  0.13036900  0.89754000  0.50220800  1
  O  O45  1  0.62571700  0.76703900  0.20158200  1
  O  O46  1  0.62571700  0.73296100  0.79841800  1
  O  O47  1  0.08236700  0.96815500  0.84959600  1
  O  O48  1  0.07137000  0.28720900  0.23839500  1
  O  O49  1  0.79232700  0.54220300  0.19669200  1
  O  O50  1  0.17995800  0.25000000  0.00000000  1
  O  O51  1  0.20860100  0.78498400  0.16651400  1
  O  O52  1  0.63916800  0.08965300  0.05528300  1
  O  O53  1  0.91763300  0.46815500  0.84959600  1
  O  O54  1  0.20767300  0.04220300  0.19669200  1
  O  O55  1  0.79139900  0.21501600  0.83348600  1
  O  O56  1  0.43306500  0.62202000  0.54669900  1
  O  O57  1  0.66561200  0.43771000  0.69043200  1
  O  O58  1  0.20860100  0.71501600  0.83348600  1
  O  O59  1  0.37428300  0.23296100  0.79841800  1
