# generated using pymatgen
data_Zn(WO2)2
_symmetry_space_group_name_H-M   'P 1'
_cell_length_a   6.35522166
_cell_length_b   6.35522166
_cell_length_c   6.35522166
_cell_angle_alpha   120.89505976
_cell_angle_beta   117.36136004
_cell_angle_gamma   91.54326467
_symmetry_Int_Tables_number   1
_chemical_formula_structural   Zn(WO2)2
_chemical_formula_sum   'Zn2 W4 O8'
_cell_volume   183.60819970
_cell_formula_units_Z   2
loop_
 _symmetry_equiv_pos_site_id
 _symmetry_equiv_pos_as_xyz
  1  'x, y, z'
loop_
 _atom_site_type_symbol
 _atom_site_label
 _atom_site_symmetry_multiplicity
 _atom_site_fract_x
 _atom_site_fract_y
 _atom_site_fract_z
 _atom_site_occupancy
  Zn  Zn0  1  0.00000000  0.50000000  0.50000000  1
  Zn  Zn1  1  0.50000000  0.50000000  0.00000000  1
  W  W2  1  0.09832700  0.84832700  0.25000000  1
  W  W3  1  0.90167300  0.15167300  0.75000000  1
  W  W4  1  0.50000000  0.00000000  0.00000000  1
  W  W5  1  0.50000000  0.50000000  0.50000000  1
  O  O6  1  0.74614500  0.25831200  0.01216600  1
  O  O7  1  0.73339700  0.25882200  0.47457500  1
  O  O8  1  0.74614500  0.73397900  0.48783400  1
  O  O9  1  0.28424700  0.25882200  0.02542500  1
  O  O10  1  0.71575300  0.74117800  0.97457500  1
  O  O11  1  0.26660300  0.74117800  0.52542500  1
  O  O12  1  0.25385500  0.26602100  0.51216600  1
  O  O13  1  0.25385500  0.74168800  0.98783400  1
