# generated using pymatgen
data_Mg(SnO2)4
_symmetry_space_group_name_H-M   'P 1'
_cell_length_a   8.06940181
_cell_length_b   8.06940181
_cell_length_c   9.82242144
_cell_angle_alpha   53.10620187
_cell_angle_beta   53.10620187
_cell_angle_gamma   23.05692661
_symmetry_Int_Tables_number   1
_chemical_formula_structural   Mg(SnO2)4
_chemical_formula_sum   'Mg1 Sn4 O8'
_cell_volume   197.96905402
_cell_formula_units_Z   1
loop_
 _symmetry_equiv_pos_site_id
 _symmetry_equiv_pos_as_xyz
  1  'x, y, z'
loop_
 _atom_site_type_symbol
 _atom_site_label
 _atom_site_symmetry_multiplicity
 _atom_site_fract_x
 _atom_site_fract_y
 _atom_site_fract_z
 _atom_site_occupancy
  Mg  Mg0  1  0.69035300  0.69035300  0.79863800  1
  Sn  Sn1  1  0.37042400  0.37042400  0.42948800  1
  Sn  Sn2  1  0.89852300  0.89852300  0.78994200  1
  Sn  Sn3  1  0.14882500  0.14882500  0.15755000  1
  Sn  Sn4  1  0.66556900  0.66556900  0.49057400  1
  O  O5  1  0.13561600  0.13561600  0.39501100  1
  O  O6  1  0.53370400  0.53370400  0.26523500  1
  O  O7  1  0.51256200  0.51256200  0.71906800  1
  O  O8  1  0.85538400  0.85538400  0.58147300  1
  O  O9  1  0.83592300  0.83592300  0.32667500  1
  O  O10  1  0.17131500  0.17131500  0.92984600  1
  O  O11  1  0.19553300  0.19553300  0.61337700  1
  O  O12  1  0.74866100  0.74866100  0.09433000  1
