# generated using pymatgen
data_Ti(GeO3)2
_symmetry_space_group_name_H-M   'P 1'
_cell_length_a   9.04084500
_cell_length_b   5.61186900
_cell_length_c   9.95123804
_cell_angle_alpha   74.91337809
_cell_angle_beta   90.00000000
_cell_angle_gamma   90.00000000
_symmetry_Int_Tables_number   1
_chemical_formula_structural   Ti(GeO3)2
_chemical_formula_sum   'Ti4 Ge8 O24'
_cell_volume   487.48468730
_cell_formula_units_Z   4
loop_
 _symmetry_equiv_pos_site_id
 _symmetry_equiv_pos_as_xyz
  1  'x, y, z'
loop_
 _atom_site_type_symbol
 _atom_site_label
 _atom_site_symmetry_multiplicity
 _atom_site_fract_x
 _atom_site_fract_y
 _atom_site_fract_z
 _atom_site_occupancy
  Ti  Ti0  1  0.64345500  0.01136900  0.24994100  1
  Ti  Ti1  1  0.14345500  0.48863100  0.75005900  1
  Ti  Ti2  1  0.35654500  0.98863100  0.75005900  1
  Ti  Ti3  1  0.85654500  0.51136900  0.24994100  1
  Ge  Ge4  1  0.33263100  0.15453500  0.04403300  1
  Ge  Ge5  1  0.83263100  0.34546500  0.95596700  1
  Ge  Ge6  1  0.66736900  0.84546500  0.95596700  1
  Ge  Ge7  1  0.16736900  0.65453500  0.04403300  1
  Ge  Ge8  1  0.33633800  0.81804000  0.45947600  1
  Ge  Ge9  1  0.83633800  0.68196000  0.54052400  1
  Ge  Ge10  1  0.66366200  0.18196000  0.54052400  1
  Ge  Ge11  1  0.16366200  0.31804000  0.45947600  1
  O  O12  1  0.25278100  0.59864100  0.38770500  1
  O  O13  1  0.75278100  0.90135900  0.61229500  1
  O  O14  1  0.74721900  0.40135900  0.61229500  1
  O  O15  1  0.24721900  0.09864100  0.38770500  1
  O  O16  1  0.27768300  0.84832300  0.11442800  1
  O  O17  1  0.77768300  0.65167700  0.88557200  1
  O  O18  1  0.72231700  0.15167700  0.88557200  1
  O  O19  1  0.22231700  0.34832300  0.11442800  1
  O  O20  1  0.98109800  0.35051300  0.39131400  1
  O  O21  1  0.48109800  0.14948700  0.60868600  1
  O  O22  1  0.01890200  0.64948700  0.60868600  1
  O  O23  1  0.51890200  0.85051300  0.39131400  1
  O  O24  1  0.98745500  0.66265400  0.11325500  1
  O  O25  1  0.48745500  0.83734600  0.88674500  1
  O  O26  1  0.01254500  0.33734600  0.88674500  1
  O  O27  1  0.51254500  0.16265400  0.11325500  1
  O  O28  1  0.31174000  0.23975000  0.85923300  1
  O  O29  1  0.81174000  0.26025000  0.14076700  1
  O  O30  1  0.68826000  0.76025000  0.14076700  1
  O  O31  1  0.18826000  0.73975000  0.85923300  1
  O  O32  1  0.31714600  0.73142200  0.64452400  1
  O  O33  1  0.81714600  0.76857800  0.35547600  1
  O  O34  1  0.68285400  0.26857800  0.35547600  1
  O  O35  1  0.18285400  0.23142200  0.64452400  1
