# generated using pymatgen
data_TeWO6
_symmetry_space_group_name_H-M   'P 1'
_cell_length_a   5.33616900
_cell_length_b   5.17904900
_cell_length_c   9.06699930
_cell_angle_alpha   55.17903108
_cell_angle_beta   90.00000000
_cell_angle_gamma   90.00000000
_symmetry_Int_Tables_number   1
_chemical_formula_structural   TeWO6
_chemical_formula_sum   'Te2 W2 O12'
_cell_volume   205.70968829
_cell_formula_units_Z   2
loop_
 _symmetry_equiv_pos_site_id
 _symmetry_equiv_pos_as_xyz
  1  'x, y, z'
loop_
 _atom_site_type_symbol
 _atom_site_label
 _atom_site_symmetry_multiplicity
 _atom_site_fract_x
 _atom_site_fract_y
 _atom_site_fract_z
 _atom_site_occupancy
  Te  Te0  1  0.00000000  0.50000000  0.00000000  1
  Te  Te1  1  0.50000000  0.50000000  0.50000000  1
  W  W2  1  0.00000000  0.00000000  0.50000000  1
  W  W3  1  0.50000000  0.00000000  0.00000000  1
  O  O4  1  0.29731300  0.75000200  0.54989800  1
  O  O5  1  0.79731300  0.24999800  0.95010200  1
  O  O6  1  0.70268700  0.24999800  0.45010200  1
  O  O7  1  0.20268700  0.75000200  0.04989800  1
  O  O8  1  0.20265200  0.35110400  0.45110500  1
  O  O9  1  0.70265200  0.64889600  0.04889500  1
  O  O10  1  0.79734800  0.64889600  0.54889500  1
  O  O11  1  0.29734800  0.35110400  0.95110500  1
  O  O12  1  0.48318700  0.15160600  0.74933700  1
  O  O13  1  0.98318700  0.84839400  0.75066300  1
  O  O14  1  0.01681300  0.15160600  0.24933700  1
  O  O15  1  0.51681300  0.84839400  0.25066300  1
