# generated using pymatgen
data_PrMg(WO3)2
_symmetry_space_group_name_H-M   'P 1'
_cell_length_a   5.71966600
_cell_length_b   5.50392900
_cell_length_c   9.78420996
_cell_angle_alpha   55.99123919
_cell_angle_beta   90.00000000
_cell_angle_gamma   90.00000000
_symmetry_Int_Tables_number   1
_chemical_formula_structural   PrMg(WO3)2
_chemical_formula_sum   'Pr2 Mg2 W4 O12'
_cell_volume   255.32813354
_cell_formula_units_Z   2
loop_
 _symmetry_equiv_pos_site_id
 _symmetry_equiv_pos_as_xyz
  1  'x, y, z'
loop_
 _atom_site_type_symbol
 _atom_site_label
 _atom_site_symmetry_multiplicity
 _atom_site_fract_x
 _atom_site_fract_y
 _atom_site_fract_z
 _atom_site_occupancy
  Pr  Pr0  1  0.30304300  0.75828200  0.24932500  1
  Pr  Pr1  1  0.69695700  0.75828200  0.74932500  1
  Mg  Mg2  1  0.79836700  0.23539000  0.24901600  1
  Mg  Mg3  1  0.20163300  0.23539000  0.74901600  1
  W  W4  1  0.75548200  0.99906100  0.99981200  1
  W  W5  1  0.75215600  0.49967000  0.49941200  1
  W  W6  1  0.24451800  0.99906100  0.49981200  1
  W  W7  1  0.24784400  0.49967000  0.99941200  1
  O  O8  1  0.83502700  0.35775300  0.75201000  1
  O  O9  1  0.03917900  0.12553300  0.06958400  1
  O  O10  1  0.04675100  0.78052800  0.43131600  1
  O  O11  1  0.55743800  0.89734900  0.43244200  1
  O  O12  1  0.56977900  0.23972900  0.07086400  1
  O  O13  1  0.30117800  0.60670300  0.74626600  1
  O  O14  1  0.16497300  0.35775300  0.25201000  1
  O  O15  1  0.95324900  0.78052800  0.93131600  1
  O  O16  1  0.96082100  0.12553300  0.56958400  1
  O  O17  1  0.44256200  0.89734900  0.93244200  1
  O  O18  1  0.43022100  0.23972900  0.57086400  1
  O  O19  1  0.69882200  0.60670300  0.24626600  1
