# generated using pymatgen
data_MgSn(GeO3)2
_symmetry_space_group_name_H-M   'P 1'
_cell_length_a   7.40720245
_cell_length_b   7.40720245
_cell_length_c   5.57936817
_cell_angle_alpha   78.33779043
_cell_angle_beta   78.33779043
_cell_angle_gamma   88.31522332
_symmetry_Int_Tables_number   1
_chemical_formula_structural   MgSn(GeO3)2
_chemical_formula_sum   'Mg2 Sn2 Ge4 O12'
_cell_volume   293.59180733
_cell_formula_units_Z   2
loop_
 _symmetry_equiv_pos_site_id
 _symmetry_equiv_pos_as_xyz
  1  'x, y, z'
loop_
 _atom_site_type_symbol
 _atom_site_label
 _atom_site_symmetry_multiplicity
 _atom_site_fract_x
 _atom_site_fract_y
 _atom_site_fract_z
 _atom_site_occupancy
  Mg  Mg0  1  0.74205700  0.25794300  0.25000000  1
  Mg  Mg1  1  0.25794300  0.74205700  0.75000000  1
  Sn  Sn2  1  0.12418000  0.87582000  0.25000000  1
  Sn  Sn3  1  0.87582000  0.12418000  0.75000000  1
  Ge  Ge4  1  0.61059300  0.79497500  0.24981200  1
  Ge  Ge5  1  0.20502500  0.38940700  0.25018800  1
  Ge  Ge6  1  0.38940700  0.20502500  0.75018800  1
  Ge  Ge7  1  0.79497500  0.61059300  0.74981200  1
  O  O8  1  0.70527500  0.62432400  0.46840800  1
  O  O9  1  0.37567600  0.29472500  0.03159200  1
  O  O10  1  0.29472500  0.37567600  0.53159200  1
  O  O11  1  0.62432400  0.70527500  0.96840800  1
  O  O12  1  0.81060200  0.37752300  0.89456000  1
  O  O13  1  0.62247700  0.18939800  0.60544000  1
  O  O14  1  0.18939800  0.62247700  0.10544000  1
  O  O15  1  0.37752300  0.81060200  0.39456000  1
  O  O16  1  0.71945100  0.01067900  0.16425600  1
  O  O17  1  0.98932100  0.28054900  0.33574400  1
  O  O18  1  0.28054900  0.98932100  0.83574400  1
  O  O19  1  0.01067900  0.71945100  0.66425600  1
