# generated using pymatgen
data_CaNiAsO5
_symmetry_space_group_name_H-M   'P 1'
_cell_length_a   5.86842600
_cell_length_b   7.52921700
_cell_length_c   8.85417500
_cell_angle_alpha   90.00000000
_cell_angle_beta   90.00000000
_cell_angle_gamma   90.00000000
_symmetry_Int_Tables_number   1
_chemical_formula_structural   CaNiAsO5
_chemical_formula_sum   'Ca4 Ni4 As4 O20'
_cell_volume   391.21864823
_cell_formula_units_Z   4
loop_
 _symmetry_equiv_pos_site_id
 _symmetry_equiv_pos_as_xyz
  1  'x, y, z'
loop_
 _atom_site_type_symbol
 _atom_site_label
 _atom_site_symmetry_multiplicity
 _atom_site_fract_x
 _atom_site_fract_y
 _atom_site_fract_z
 _atom_site_occupancy
  Ca  Ca0  1  0.97378500  0.84907600  0.66678700  1
  Ca  Ca1  1  0.52621500  0.15092400  0.16678700  1
  Ca  Ca2  1  0.02621500  0.34907600  0.83321300  1
  Ca  Ca3  1  0.47378500  0.65092400  0.33321300  1
  Ni  Ni4  1  0.25102700  0.75419300  0.99611200  1
  Ni  Ni5  1  0.24897300  0.24580700  0.49611200  1
  Ni  Ni6  1  0.74897300  0.25419300  0.50388800  1
  Ni  Ni7  1  0.75102700  0.74580700  0.00388800  1
  As  As8  1  0.48267000  0.10690300  0.80717700  1
  As  As9  1  0.01733000  0.89309700  0.30717700  1
  As  As10  1  0.51733000  0.60690300  0.69282300  1
  As  As11  1  0.98267000  0.39309700  0.19282300  1
  O  O12  1  0.50827500  0.92298900  0.92691000  1
  O  O13  1  0.99172500  0.07701100  0.42691000  1
  O  O14  1  0.49172500  0.42298900  0.57309000  1
  O  O15  1  0.00827500  0.57701100  0.07309000  1
  O  O16  1  0.41326900  0.27389800  0.92783100  1
  O  O17  1  0.08673100  0.72610200  0.42783100  1
  O  O18  1  0.58673100  0.77389800  0.57216900  1
  O  O19  1  0.91326900  0.22610200  0.07216900  1
  O  O20  1  0.74072500  0.13346000  0.71592300  1
  O  O21  1  0.75927500  0.86654000  0.21592300  1
  O  O22  1  0.25927500  0.63346000  0.78407700  1
  O  O23  1  0.24072500  0.36654000  0.28407700  1
  O  O24  1  0.24873300  0.09298800  0.68956000  1
  O  O25  1  0.25126700  0.90701200  0.18956000  1
  O  O26  1  0.75126700  0.59298800  0.81044000  1
  O  O27  1  0.74873300  0.40701200  0.31044000  1
  O  O28  1  0.99556300  0.87333400  0.92575800  1
  O  O29  1  0.50443700  0.12666600  0.42575800  1
  O  O30  1  0.00443700  0.37333400  0.57424200  1
  O  O31  1  0.49556300  0.62666600  0.07424200  1
