# generated using pymatgen
data_MgNi(GeO3)2
_symmetry_space_group_name_H-M   'P 1'
_cell_length_a   8.98574600
_cell_length_b   5.41247500
_cell_length_c   9.80003423
_cell_angle_alpha   76.68543889
_cell_angle_beta   90.00000000
_cell_angle_gamma   90.00000000
_symmetry_Int_Tables_number   1
_chemical_formula_structural   MgNi(GeO3)2
_chemical_formula_sum   'Mg4 Ni4 Ge8 O24'
_cell_volume   463.81437088
_cell_formula_units_Z   4
loop_
 _symmetry_equiv_pos_site_id
 _symmetry_equiv_pos_as_xyz
  1  'x, y, z'
loop_
 _atom_site_type_symbol
 _atom_site_label
 _atom_site_symmetry_multiplicity
 _atom_site_fract_x
 _atom_site_fract_y
 _atom_site_fract_z
 _atom_site_occupancy
  Mg  Mg0  1  0.49020500  0.55923700  0.24552800  1
  Mg  Mg1  1  0.99020500  0.94076300  0.75447200  1
  Mg  Mg2  1  0.50979500  0.44076300  0.75447200  1
  Mg  Mg3  1  0.00979500  0.05923700  0.24552800  1
  Ni  Ni4  1  0.65691800  0.04902500  0.24474900  1
  Ni  Ni5  1  0.15691800  0.45097500  0.75525100  1
  Ni  Ni6  1  0.34308200  0.95097500  0.75525100  1
  Ni  Ni7  1  0.84308200  0.54902500  0.24474900  1
  Ge  Ge8  1  0.33992300  0.17296700  0.05570600  1
  Ge  Ge9  1  0.83992300  0.32703300  0.94429400  1
  Ge  Ge10  1  0.66007700  0.82703300  0.94429400  1
  Ge  Ge11  1  0.16007700  0.67296700  0.05570600  1
  Ge  Ge12  1  0.34471200  0.76858700  0.46015300  1
  Ge  Ge13  1  0.84471200  0.73141300  0.53984700  1
  Ge  Ge14  1  0.65528800  0.23141300  0.53984700  1
  Ge  Ge15  1  0.15528800  0.26858700  0.46015300  1
  O  O16  1  0.28959700  0.50356900  0.38648300  1
  O  O17  1  0.78959700  0.99643100  0.61351700  1
  O  O18  1  0.71040300  0.49643100  0.61351700  1
  O  O19  1  0.21040300  0.00356900  0.38648300  1
  O  O20  1  0.32254800  0.82840500  0.11116000  1
  O  O21  1  0.82254800  0.67159500  0.88884000  1
  O  O22  1  0.67745200  0.17159500  0.88884000  1
  O  O23  1  0.17745200  0.32840500  0.11116000  1
  O  O24  1  0.98470100  0.31278800  0.37607000  1
  O  O25  1  0.48470100  0.18721200  0.62393000  1
  O  O26  1  0.01529900  0.68721200  0.62393000  1
  O  O27  1  0.51529900  0.81278800  0.37607000  1
  O  O28  1  0.01217100  0.77646300  0.13969400  1
  O  O29  1  0.51217100  0.72353700  0.86030600  1
  O  O30  1  0.98782900  0.22353700  0.86030600  1
  O  O31  1  0.48782900  0.27646300  0.13969400  1
  O  O32  1  0.33793800  0.23749300  0.86985600  1
  O  O33  1  0.83793800  0.26250700  0.13014400  1
  O  O34  1  0.66206200  0.76250700  0.13014400  1
  O  O35  1  0.16206200  0.73749300  0.86985600  1
  O  O36  1  0.34056800  0.67272500  0.64380600  1
  O  O37  1  0.84056800  0.82727500  0.35619400  1
  O  O38  1  0.65943200  0.32727500  0.35619400  1
  O  O39  1  0.15943200  0.17272500  0.64380600  1
