# generated using pymatgen
data_Mg2Mo3O8
_symmetry_space_group_name_H-M   'P 1'
_cell_length_a   6.17370625
_cell_length_b   6.17370625
_cell_length_c   5.25953213
_cell_angle_alpha   72.15847248
_cell_angle_beta   72.15847248
_cell_angle_gamma   59.01784186
_symmetry_Int_Tables_number   1
_chemical_formula_structural   Mg2Mo3O8
_chemical_formula_sum   'Mg2 Mo3 O8'
_cell_volume   160.86155601
_cell_formula_units_Z   1
loop_
 _symmetry_equiv_pos_site_id
 _symmetry_equiv_pos_as_xyz
  1  'x, y, z'
loop_
 _atom_site_type_symbol
 _atom_site_label
 _atom_site_symmetry_multiplicity
 _atom_site_fract_x
 _atom_site_fract_y
 _atom_site_fract_z
 _atom_site_occupancy
  Mg  Mg0  1  0.72068400  0.72068400  0.35064800  1
  Mg  Mg1  1  0.27931600  0.27931600  0.64935200  1
  Mo  Mo2  1  0.00000000  0.00000000  0.50000000  1
  Mo  Mo3  1  0.73308800  0.26691200  0.00000000  1
  Mo  Mo4  1  0.26691200  0.73308800  0.00000000  1
  O  O5  1  0.38277800  0.38277800  0.92597000  1
  O  O6  1  0.61722200  0.61722200  0.07403000  1
  O  O7  1  0.89063700  0.89063700  0.92914100  1
  O  O8  1  0.10936300  0.10936300  0.07085900  1
  O  O9  1  0.35053300  0.88617800  0.58749800  1
  O  O10  1  0.88617800  0.35053300  0.58749800  1
  O  O11  1  0.11382200  0.64946700  0.41250200  1
  O  O12  1  0.64946700  0.11382200  0.41250200  1
