# generated using pymatgen
data_MgCrO2
_symmetry_space_group_name_H-M   'P 1'
_cell_length_a   3.04827200
_cell_length_b   8.10576804
_cell_length_c   8.59969096
_cell_angle_alpha   89.33031420
_cell_angle_beta   84.37429113
_cell_angle_gamma   88.25592691
_symmetry_Int_Tables_number   1
_chemical_formula_structural   MgCrO2
_chemical_formula_sum   'Mg4 Cr4 O8'
_cell_volume   211.35671100
_cell_formula_units_Z   4
loop_
 _symmetry_equiv_pos_site_id
 _symmetry_equiv_pos_as_xyz
  1  'x, y, z'
loop_
 _atom_site_type_symbol
 _atom_site_label
 _atom_site_symmetry_multiplicity
 _atom_site_fract_x
 _atom_site_fract_y
 _atom_site_fract_z
 _atom_site_occupancy
  Mg  Mg0  1  0.83193600  0.91844700  0.26555700  1
  Mg  Mg1  1  0.16806400  0.08155300  0.73444300  1
  Mg  Mg2  1  0.25365400  0.26255000  0.10933700  1
  Mg  Mg3  1  0.74634600  0.73745000  0.89066300  1
  Cr  Cr4  1  0.49056300  0.75749600  0.57711200  1
  Cr  Cr5  1  0.22415900  0.58764200  0.19747500  1
  Cr  Cr6  1  0.77584100  0.41235800  0.80252500  1
  Cr  Cr7  1  0.50943700  0.24250400  0.42288800  1
  O  O8  1  0.96859200  0.24345900  0.57691700  1
  O  O9  1  0.27219500  0.60251400  0.79089300  1
  O  O10  1  0.72780500  0.39748600  0.20910700  1
  O  O11  1  0.03140800  0.75654100  0.42308300  1
  O  O12  1  0.68071400  0.92209800  0.74803000  1
  O  O13  1  0.73623200  0.73964300  0.11612300  1
  O  O14  1  0.31928600  0.07790200  0.25197000  1
  O  O15  1  0.26376800  0.26035700  0.88387700  1
