# generated using pymatgen
data_AlV(WO4)2
_symmetry_space_group_name_H-M   'P 1'
_cell_length_a   4.96916200
_cell_length_b   5.46409825
_cell_length_c   5.58067010
_cell_angle_alpha   107.90797602
_cell_angle_beta   109.10558310
_cell_angle_gamma   89.32227246
_symmetry_Int_Tables_number   1
_chemical_formula_structural   AlV(WO4)2
_chemical_formula_sum   'Al1 V1 W2 O8'
_cell_volume   135.57663475
_cell_formula_units_Z   1
loop_
 _symmetry_equiv_pos_site_id
 _symmetry_equiv_pos_as_xyz
  1  'x, y, z'
loop_
 _atom_site_type_symbol
 _atom_site_label
 _atom_site_symmetry_multiplicity
 _atom_site_fract_x
 _atom_site_fract_y
 _atom_site_fract_z
 _atom_site_occupancy
  Al  Al0  1  0.00000000  0.50000000  0.50000000  1
  V  V1  1  0.50000000  0.00000000  0.50000000  1
  W  W2  1  0.75625900  0.82095000  0.01526900  1
  W  W3  1  0.24374100  0.17905000  0.98473100  1
  O  O4  1  0.82420300  0.55979300  0.74459200  1
  O  O5  1  0.73565700  0.71994700  0.31639400  1
  O  O6  1  0.82360700  0.07728700  0.82423200  1
  O  O7  1  0.66936100  0.18234000  0.25603800  1
  O  O8  1  0.26434300  0.28005300  0.68360600  1
  O  O9  1  0.17579700  0.44020700  0.25540800  1
  O  O10  1  0.17639300  0.92271300  0.17576800  1
  O  O11  1  0.33063900  0.81766000  0.74396200  1
