# generated using pymatgen
data_Al4V13Si2(SbO14)2
_symmetry_space_group_name_H-M   'P 1'
_cell_length_a   5.62100300
_cell_length_b   8.93652244
_cell_length_c   12.10575599
_cell_angle_alpha   87.29681087
_cell_angle_beta   76.81338745
_cell_angle_gamma   79.76868879
_symmetry_Int_Tables_number   1
_chemical_formula_structural   Al4V13Si2(SbO14)2
_chemical_formula_sum   'Al4 V13 Si2 Sb2 O28'
_cell_volume   582.63617021
_cell_formula_units_Z   1
loop_
 _symmetry_equiv_pos_site_id
 _symmetry_equiv_pos_as_xyz
  1  'x, y, z'
loop_
 _atom_site_type_symbol
 _atom_site_label
 _atom_site_symmetry_multiplicity
 _atom_site_fract_x
 _atom_site_fract_y
 _atom_site_fract_z
 _atom_site_occupancy
  Al  Al0  1  0.50326900  0.32864200  0.43487700  1
  Al  Al1  1  0.06257300  0.67238600  0.43450900  1
  Al  Al2  1  0.49448900  0.67337100  0.56444500  1
  Al  Al3  1  0.94117900  0.32669000  0.56604500  1
  V  V4  1  0.37165700  0.35801500  0.71094700  1
  V  V5  1  0.20804900  0.64828300  0.13809200  1
  V  V6  1  0.92135200  0.64109200  0.71030000  1
  V  V7  1  0.62939300  0.64075400  0.28949300  1
  V  V8  1  0.79042500  0.35113300  0.86117000  1
  V  V9  1  0.28540100  0.00127200  0.42505900  1
  V  V10  1  0.65247800  0.35196900  0.13777700  1
  V  V11  1  0.00133500  0.99993700  0.99865600  1
  V  V12  1  0.42844600  0.99821900  0.14746300  1
  V  V13  1  0.34486900  0.64870400  0.86232400  1
  V  V14  1  0.07825600  0.35921800  0.29167100  1
  V  V15  1  0.57118300  0.00131400  0.85346800  1
  V  V16  1  0.71180800  0.00018000  0.57364500  1
  Si  Si17  1  0.76268900  0.68541700  0.99935000  1
  Si  Si18  1  0.23478600  0.31481500  0.00112300  1
  Sb  Sb19  1  0.85964000  0.00012200  0.27973200  1
  Sb  Sb20  1  0.13711600  0.99844500  0.71668900  1
  O  O21  1  0.01739100  0.60967800  0.30325300  1
  O  O22  1  0.37840400  0.62628700  0.44836500  1
  O  O23  1  0.05671400  0.64954700  0.99969700  1
  O  O24  1  0.68147600  0.87270900  0.99953500  1
  O  O25  1  0.62651100  0.36705900  0.55122500  1
  O  O26  1  0.98259900  0.39203700  0.69697700  1
  O  O27  1  0.41803700  0.87892200  0.56099700  1
  O  O28  1  0.55961700  0.12275100  0.43251800  1
  O  O29  1  0.31794000  0.12745900  0.00193700  1
  O  O30  1  0.71178500  0.11360000  0.13470600  1
  O  O31  1  0.60513500  0.60940600  0.11533200  1
  O  O32  1  0.67811700  0.39216300  0.30342500  1
  O  O33  1  0.01410900  0.12100300  0.56625100  1
  O  O34  1  0.14776500  0.88634600  0.13700000  1
  O  O35  1  0.27562000  0.39014800  0.11735500  1
  O  O36  1  0.94144000  0.34931100  0.00011700  1
  O  O37  1  0.84971400  0.11388300  0.86409600  1
  O  O38  1  0.28730400  0.88508200  0.86789000  1
  O  O39  1  0.00952400  0.87891200  0.43508500  1
  O  O40  1  0.53158600  0.87876300  0.28011900  1
  O  O41  1  0.46235600  0.12143700  0.72239200  1
  O  O42  1  0.72003900  0.60956900  0.88371400  1
  O  O43  1  0.82317400  0.87829800  0.71949100  1
  O  O44  1  0.82375400  0.63329000  0.55064300  1
  O  O45  1  0.39292800  0.39094600  0.88535700  1
  O  O46  1  0.18274700  0.12025400  0.28836200  1
  O  O47  1  0.32385100  0.60828000  0.69624300  1
  O  O48  1  0.17304900  0.37264900  0.44988400  1
