# generated using pymatgen
data_ZnAs2WO7
_symmetry_space_group_name_H-M   'P 1'
_cell_length_a   9.12170700
_cell_length_b   8.59270200
_cell_length_c   10.73884637
_cell_angle_alpha   53.52461702
_cell_angle_beta   90.00000000
_cell_angle_gamma   90.00000000
_symmetry_Int_Tables_number   1
_chemical_formula_structural   ZnAs2WO7
_chemical_formula_sum   'Zn4 As8 W4 O28'
_cell_volume   676.83098254
_cell_formula_units_Z   4
loop_
 _symmetry_equiv_pos_site_id
 _symmetry_equiv_pos_as_xyz
  1  'x, y, z'
loop_
 _atom_site_type_symbol
 _atom_site_label
 _atom_site_symmetry_multiplicity
 _atom_site_fract_x
 _atom_site_fract_y
 _atom_site_fract_z
 _atom_site_occupancy
  Zn  Zn0  1  0.05308600  0.69272700  0.86966600  1
  Zn  Zn1  1  0.55308600  0.30727300  0.63033400  1
  Zn  Zn2  1  0.94691400  0.30727300  0.13033400  1
  Zn  Zn3  1  0.44691400  0.69272700  0.36966600  1
  As  As4  1  0.77139100  0.50971600  0.77989900  1
  As  As5  1  0.27139100  0.49028400  0.72010100  1
  As  As6  1  0.22860900  0.49028400  0.22010100  1
  As  As7  1  0.72860900  0.50971600  0.27989900  1
  As  As8  1  0.67170300  0.94479900  0.97224600  1
  As  As9  1  0.17170300  0.05520100  0.52775400  1
  As  As10  1  0.32829700  0.05520100  0.02775400  1
  As  As11  1  0.82829700  0.94479900  0.47224600  1
  W  W12  1  0.91335800  0.17435100  0.70028300  1
  W  W13  1  0.41335800  0.82564900  0.79971700  1
  W  W14  1  0.08664200  0.82564900  0.29971700  1
  W  W15  1  0.58664200  0.17435100  0.20028300  1
  O  O16  1  0.67423300  0.25593500  0.02214500  1
  O  O17  1  0.17423300  0.74406500  0.47785500  1
  O  O18  1  0.32576700  0.74406500  0.97785500  1
  O  O19  1  0.82576700  0.25593500  0.52214500  1
  O  O20  1  0.57397700  0.70358200  0.80969800  1
  O  O21  1  0.07397700  0.29641800  0.69030200  1
  O  O22  1  0.42602300  0.29641800  0.19030200  1
  O  O23  1  0.92602300  0.70358200  0.30969800  1
  O  O24  1  0.93035400  0.47607200  0.89904400  1
  O  O25  1  0.43035400  0.52392800  0.60095600  1
  O  O26  1  0.06964600  0.52392800  0.10095600  1
  O  O27  1  0.56964600  0.47607200  0.39904400  1
  O  O28  1  0.87470300  0.69334000  0.59359100  1
  O  O29  1  0.37470300  0.30666000  0.90640900  1
  O  O30  1  0.12529700  0.30666000  0.40640900  1
  O  O31  1  0.62529700  0.69334000  0.09359100  1
  O  O32  1  0.95590500  0.02694200  0.30233800  1
  O  O33  1  0.45590500  0.97305800  0.19766200  1
  O  O34  1  0.04409500  0.97305800  0.69766200  1
  O  O35  1  0.54409500  0.02694200  0.80233800  1
  O  O36  1  0.72671700  0.30829500  0.24497500  1
  O  O37  1  0.22671700  0.69170500  0.25502500  1
  O  O38  1  0.27328300  0.69170500  0.75502500  1
  O  O39  1  0.77328300  0.30829500  0.74497500  1
  O  O40  1  0.65805800  0.92937600  0.38650600  1
  O  O41  1  0.15805800  0.07062400  0.11349400  1
  O  O42  1  0.34194200  0.07062400  0.61349400  1
  O  O43  1  0.84194200  0.92937600  0.88650600  1
