# generated using pymatgen
data_Mg(Mo3O8)2
_symmetry_space_group_name_H-M   'P 1'
_cell_length_a   6.17990412
_cell_length_b   6.17990412
_cell_length_c   9.56048000
_cell_angle_alpha   90.00000000
_cell_angle_beta   90.00000000
_cell_angle_gamma   120.00000133
_symmetry_Int_Tables_number   1
_chemical_formula_structural   Mg(Mo3O8)2
_chemical_formula_sum   'Mg1 Mo6 O16'
_cell_volume   316.20868786
_cell_formula_units_Z   1
loop_
 _symmetry_equiv_pos_site_id
 _symmetry_equiv_pos_as_xyz
  1  'x, y, z'
loop_
 _atom_site_type_symbol
 _atom_site_label
 _atom_site_symmetry_multiplicity
 _atom_site_fract_x
 _atom_site_fract_y
 _atom_site_fract_z
 _atom_site_occupancy
  Mg  Mg0  1  0.66666700  0.33333300  0.03060300  1
  Mo  Mo1  1  0.66264700  0.83132400  0.25046600  1
  Mo  Mo2  1  0.83377500  0.16622500  0.74628600  1
  Mo  Mo3  1  0.16867600  0.33735300  0.25046600  1
  Mo  Mo4  1  0.83377500  0.66754900  0.74628600  1
  Mo  Mo5  1  0.33245100  0.16622500  0.74628600  1
  Mo  Mo6  1  0.16867600  0.83132400  0.25046600  1
  O  O7  1  0.84141400  0.15858600  0.14261200  1
  O  O8  1  0.69936100  0.84968100  0.64616900  1
  O  O9  1  0.15031900  0.30063900  0.64616900  1
  O  O10  1  0.84141400  0.68282800  0.14261200  1
  O  O11  1  0.31717200  0.15858600  0.14261200  1
  O  O12  1  0.15031900  0.84968100  0.64616900  1
  O  O13  1  0.52734000  0.47266000  0.86583800  1
  O  O14  1  0.04583700  0.52291800  0.35616700  1
  O  O15  1  0.47708200  0.95416300  0.35616700  1
  O  O16  1  0.52734000  0.05467900  0.86583800  1
  O  O17  1  0.00000000  0.00000000  0.35475000  1
  O  O18  1  0.00000000  0.00000000  0.86122600  1
  O  O19  1  0.33333300  0.66666700  0.13224600  1
  O  O20  1  0.94532100  0.47266000  0.86583800  1
  O  O21  1  0.47708200  0.52291800  0.35616700  1
  O  O22  1  0.66666700  0.33333300  0.63456700  1
