# generated using pymatgen
data_CaBi2(PO5)2
_symmetry_space_group_name_H-M   'P 1'
_cell_length_a   10.49656673
_cell_length_b   9.15834269
_cell_length_c   7.67089480
_cell_angle_alpha   76.60916740
_cell_angle_beta   58.08003197
_cell_angle_gamma   45.31080063
_symmetry_Int_Tables_number   1
_chemical_formula_structural   CaBi2(PO5)2
_chemical_formula_sum   'Ca2 Bi4 P4 O20'
_cell_volume   432.79184150
_cell_formula_units_Z   2
loop_
 _symmetry_equiv_pos_site_id
 _symmetry_equiv_pos_as_xyz
  1  'x, y, z'
loop_
 _atom_site_type_symbol
 _atom_site_label
 _atom_site_symmetry_multiplicity
 _atom_site_fract_x
 _atom_site_fract_y
 _atom_site_fract_z
 _atom_site_occupancy
  Ca  Ca0  1  0.50421600  0.99578400  0.99578400  1
  Ca  Ca1  1  0.25421600  0.74578400  0.74578400  1
  Bi  Bi2  1  0.87709700  0.38089200  0.38397000  1
  Bi  Bi3  1  0.35804100  0.38397000  0.38089200  1
  Bi  Bi4  1  0.86910800  0.37290300  0.89195900  1
  Bi  Bi5  1  0.86603000  0.89195900  0.37290300  1
  P  P6  1  0.04610500  0.55707800  0.95348400  1
  P  P7  1  0.69292200  0.20389500  0.80666700  1
  P  P8  1  0.44333300  0.95348400  0.55707800  1
  P  P9  1  0.29651600  0.80666700  0.20389500  1
  O  O10  1  0.55270900  0.72813300  0.48240100  1
  O  O11  1  0.66065000  0.19285100  0.32254700  1
  O  O12  1  0.30123100  0.68912300  0.38738300  1
  O  O13  1  0.76759900  0.01324300  0.69729100  1
  O  O14  1  0.22209300  0.05327900  0.74965900  1
  O  O15  1  0.43120800  0.07255500  0.37506200  1
  O  O16  1  0.05714900  0.58935000  0.42604800  1
  O  O17  1  0.82395200  0.32254600  0.19285100  1
  O  O18  1  0.92745300  0.42604800  0.58935000  1
  O  O19  1  0.19672100  0.02790700  0.27503000  1
  O  O20  1  0.23675700  0.48240100  0.72813300  1
  O  O21  1  0.50034100  0.27503000  0.02790700  1
  O  O22  1  0.97497000  0.74965900  0.05327900  1
  O  O23  1  0.17744500  0.81879200  0.12882600  1
  O  O24  1  0.12117400  0.37506200  0.07255500  1
  O  O25  1  0.87493800  0.12882600  0.81879200  1
  O  O26  1  0.86261700  0.62773800  0.94876900  1
  O  O27  1  0.62226200  0.38738300  0.68912300  1
  O  O28  1  0.52186700  0.69729100  0.01324300  1
  O  O29  1  0.56087700  0.94876900  0.62773800  1
