# generated using pymatgen
data_Bi5(TeO6)3
_symmetry_space_group_name_H-M   'P 1'
_cell_length_a   9.28119417
_cell_length_b   9.28119417
_cell_length_c   11.72963952
_cell_angle_alpha   83.37810968
_cell_angle_beta   83.37810968
_cell_angle_gamma   59.81295378
_symmetry_Int_Tables_number   1
_chemical_formula_structural   Bi5(TeO6)3
_chemical_formula_sum   'Bi10 Te6 O36'
_cell_volume   865.61354707
_cell_formula_units_Z   2
loop_
 _symmetry_equiv_pos_site_id
 _symmetry_equiv_pos_as_xyz
  1  'x, y, z'
loop_
 _atom_site_type_symbol
 _atom_site_label
 _atom_site_symmetry_multiplicity
 _atom_site_fract_x
 _atom_site_fract_y
 _atom_site_fract_z
 _atom_site_occupancy
  Bi  Bi0  1  0.49454300  0.83020600  0.99475000  1
  Bi  Bi1  1  0.21315500  0.11619900  0.52313100  1
  Bi  Bi2  1  0.36629800  0.36588300  0.28417500  1
  Bi  Bi3  1  0.78553600  0.96132200  0.76767400  1
  Bi  Bi4  1  0.63411700  0.63370200  0.71582500  1
  Bi  Bi5  1  0.97761500  0.02238500  0.00000000  1
  Bi  Bi6  1  0.38354200  0.61645800  0.50000000  1
  Bi  Bi7  1  0.03867800  0.21446400  0.23232600  1
  Bi  Bi8  1  0.88380100  0.78684500  0.47686900  1
  Bi  Bi9  1  0.16979400  0.50545700  0.00525000  1
  Te  Te10  1  0.84862900  0.48731800  0.95808000  1
  Te  Te11  1  0.20227700  0.78964100  0.24327600  1
  Te  Te12  1  0.21035900  0.79772300  0.75672400  1
  Te  Te13  1  0.86042800  0.45973100  0.44816500  1
  Te  Te14  1  0.54026900  0.13957200  0.55183500  1
  Te  Te15  1  0.51268200  0.15137100  0.04192000  1
  O  O16  1  0.06623600  0.43458900  0.88122400  1
  O  O17  1  0.39747600  0.78461800  0.84556400  1
  O  O18  1  0.64057500  0.54149600  0.53014800  1
  O  O19  1  0.13078900  0.68635000  0.37921300  1
  O  O20  1  0.21538200  0.60252400  0.15443600  1
  O  O21  1  0.31365000  0.86921100  0.62078700  1
  O  O22  1  0.80403900  0.37480500  0.32999600  1
  O  O23  1  0.04775400  0.01790300  0.79957600  1
  O  O24  1  0.38579400  0.58104400  0.71100600  1
  O  O25  1  0.44872200  0.08490100  0.42671100  1
  O  O26  1  0.63232200  0.57487600  0.05001200  1
  O  O27  1  0.92969200  0.55396500  0.08347800  1
  O  O28  1  0.04445900  0.80314500  0.66433900  1
  O  O29  1  0.73076000  0.72519800  0.87648800  1
  O  O30  1  0.42512400  0.36767800  0.94998800  1
  O  O31  1  0.58264000  0.21436800  0.16495600  1
  O  O32  1  0.74089600  0.06172700  0.44562400  1
  O  O33  1  0.27480200  0.26924000  0.12351200  1
  O  O34  1  0.45850400  0.35942500  0.46985200  1
  O  O35  1  0.93827300  0.25910400  0.55437600  1
  O  O36  1  0.80366300  0.67356100  0.36523300  1
  O  O37  1  0.66244600  0.89986600  0.62798000  1
  O  O38  1  0.98209700  0.95224600  0.20042400  1
  O  O39  1  0.78563200  0.41736000  0.83504400  1
  O  O40  1  0.72695400  0.08061500  0.95606700  1
  O  O41  1  0.11446800  0.73384400  0.90462100  1
  O  O42  1  0.44603500  0.07030800  0.91652200  1
  O  O43  1  0.62519500  0.19596100  0.67000400  1
  O  O44  1  0.19685500  0.95554100  0.33566100  1
  O  O45  1  0.10013400  0.33755400  0.37202000  1
  O  O46  1  0.32643900  0.19633700  0.63476700  1
  O  O47  1  0.26615600  0.88553200  0.09537900  1
  O  O48  1  0.41895600  0.61420600  0.28899400  1
  O  O49  1  0.91509900  0.55127800  0.57328900  1
  O  O50  1  0.91938500  0.27304600  0.04393300  1
  O  O51  1  0.56541100  0.93376400  0.11877600  1
