# generated using pymatgen
data_NiAs2O7
_symmetry_space_group_name_H-M   'P 1'
_cell_length_a   9.05567300
_cell_length_b   6.90611400
_cell_length_c   9.87936653
_cell_angle_alpha   78.11156747
_cell_angle_beta   90.00000000
_cell_angle_gamma   90.00000000
_symmetry_Int_Tables_number   1
_chemical_formula_structural   NiAs2O7
_chemical_formula_sum   'Ni4 As8 O28'
_cell_volume   604.59821216
_cell_formula_units_Z   4
loop_
 _symmetry_equiv_pos_site_id
 _symmetry_equiv_pos_as_xyz
  1  'x, y, z'
loop_
 _atom_site_type_symbol
 _atom_site_label
 _atom_site_symmetry_multiplicity
 _atom_site_fract_x
 _atom_site_fract_y
 _atom_site_fract_z
 _atom_site_occupancy
  Ni  Ni0  1  0.93819200  0.21795700  0.68346900  1
  Ni  Ni1  1  0.43819200  0.78204300  0.81653100  1
  Ni  Ni2  1  0.06180800  0.78204300  0.31653100  1
  Ni  Ni3  1  0.56180800  0.21795700  0.18346900  1
  As  As4  1  0.75481100  0.59691800  0.74787900  1
  As  As5  1  0.25481100  0.40308200  0.75212100  1
  As  As6  1  0.24518900  0.40308200  0.25212100  1
  As  As7  1  0.74518900  0.59691800  0.24787900  1
  As  As8  1  0.70438200  0.95326300  0.97599600  1
  As  As9  1  0.20438200  0.04673700  0.52400400  1
  As  As10  1  0.29561800  0.04673700  0.02400400  1
  As  As11  1  0.79561800  0.95326300  0.47599600  1
  O  O12  1  0.68983300  0.15791100  0.04892600  1
  O  O13  1  0.18983300  0.84208900  0.45107400  1
  O  O14  1  0.31016700  0.84208900  0.95107400  1
  O  O15  1  0.81016700  0.15791100  0.54892600  1
  O  O16  1  0.56548700  0.63066300  0.73496200  1
  O  O17  1  0.06548700  0.36933700  0.76503800  1
  O  O18  1  0.43451300  0.36933700  0.26503800  1
  O  O19  1  0.93451300  0.63066300  0.23496200  1
  O  O20  1  0.83876700  0.64186000  0.89388000  1
  O  O21  1  0.33876700  0.35814000  0.60612000  1
  O  O22  1  0.16123300  0.35814000  0.10612000  1
  O  O23  1  0.66123300  0.64186000  0.39388000  1
  O  O24  1  0.84867000  0.74216200  0.60242500  1
  O  O25  1  0.34867000  0.25783800  0.89757500  1
  O  O26  1  0.15133000  0.25783800  0.39757500  1
  O  O27  1  0.65133000  0.74216200  0.10242500  1
  O  O28  1  0.91866800  0.96083700  0.34207500  1
  O  O29  1  0.41866800  0.03916300  0.15792500  1
  O  O30  1  0.08133200  0.03916300  0.65792500  1
  O  O31  1  0.58133200  0.96083700  0.84207500  1
  O  O32  1  0.72602400  0.35566500  0.23412900  1
  O  O33  1  0.22602400  0.64433500  0.26587100  1
  O  O34  1  0.27397600  0.64433500  0.76587100  1
  O  O35  1  0.77397600  0.35566500  0.73412900  1
  O  O36  1  0.62080600  0.95229100  0.40955000  1
  O  O37  1  0.12080600  0.04770900  0.09045000  1
  O  O38  1  0.37919400  0.04770900  0.59045000  1
  O  O39  1  0.87919400  0.95229100  0.90955000  1
