# generated using pymatgen
data_Ca(MoO2)2
_symmetry_space_group_name_H-M   'P 1'
_cell_length_a   6.44326300
_cell_length_b   6.53729272
_cell_length_c   16.13920209
_cell_angle_alpha   91.24524796
_cell_angle_beta   91.85989024
_cell_angle_gamma   119.35139608
_symmetry_Int_Tables_number   1
_chemical_formula_structural   Ca(MoO2)2
_chemical_formula_sum   'Ca6 Mo12 O24'
_cell_volume   591.67521178
_cell_formula_units_Z   6
loop_
 _symmetry_equiv_pos_site_id
 _symmetry_equiv_pos_as_xyz
  1  'x, y, z'
loop_
 _atom_site_type_symbol
 _atom_site_label
 _atom_site_symmetry_multiplicity
 _atom_site_fract_x
 _atom_site_fract_y
 _atom_site_fract_z
 _atom_site_occupancy
  Ca  Ca0  1  0.16830200  0.34465900  0.04488300  1
  Ca  Ca1  1  0.83767800  0.66596000  0.33011500  1
  Ca  Ca2  1  0.16826300  0.85022100  0.16685200  1
  Ca  Ca3  1  0.16936000  0.33208200  0.66736500  1
  Ca  Ca4  1  0.51577200  0.48870300  0.49985900  1
  Ca  Ca5  1  0.81474500  0.16237700  0.83168800  1
  Mo  Mo6  1  0.66947600  0.84552000  0.16649500  1
  Mo  Mo7  1  0.50058500  0.96946400  0.37074500  1
  Mo  Mo8  1  0.49120200  0.99836600  0.00420200  1
  Mo  Mo9  1  0.66695300  0.33971100  0.16465300  1
  Mo  Mo10  1  0.01183400  0.49827300  0.49707100  1
  Mo  Mo11  1  0.81213800  0.68085700  0.70016500  1
  Mo  Mo12  1  0.02347400  0.00593100  0.50033700  1
  Mo  Mo13  1  0.31658900  0.16027000  0.83557100  1
  Mo  Mo14  1  0.17690800  0.36087200  0.29624700  1
  Mo  Mo15  1  0.30728900  0.65031700  0.83436600  1
  Mo  Mo16  1  0.52585400  0.98108100  0.62810800  1
  Mo  Mo17  1  0.81314500  0.65889100  0.95554500  1
  O  O18  1  0.36564300  0.71918300  0.08285900  1
  O  O19  1  0.53565000  0.03106300  0.24507800  1
  O  O20  1  0.35778700  0.15821200  0.08354600  1
  O  O21  1  0.79160600  0.14770400  0.08964000  1
  O  O22  1  0.69896300  0.34557200  0.41144700  1
  O  O23  1  0.51202900  0.52160300  0.23070400  1
  O  O24  1  0.88549800  0.69211400  0.57057900  1
  O  O25  1  0.00030500  0.51208300  0.23457700  1
  O  O26  1  0.69115300  0.83774900  0.42286100  1
  O  O27  1  0.80227900  0.65378600  0.08195400  1
  O  O28  1  0.17832900  0.82806300  0.42460300  1
  O  O29  1  0.98720700  0.00054600  0.24994300  1
  O  O30  1  0.00626200  0.01548300  0.75774500  1
  O  O31  1  0.85844200  0.17812400  0.56605200  1
  O  O32  1  0.34527300  0.16685300  0.58288800  1
  O  O33  1  0.98997900  0.49115600  0.75623800  1
  O  O34  1  0.17462100  0.34120300  0.90616100  1
  O  O35  1  0.14850100  0.30567200  0.42385500  1
  O  O36  1  0.48350100  0.48752600  0.77346500  1
  O  O37  1  0.32531600  0.63979200  0.57950100  1
  O  O38  1  0.15492600  0.83064800  0.91885300  1
  O  O39  1  0.63590700  0.82308600  0.92315800  1
  O  O40  1  0.44509600  0.96378300  0.76355400  1
  O  O41  1  0.63616200  0.31544100  0.92647200  1
