# generated using pymatgen
data_BaMo4O7
_symmetry_space_group_name_H-M   'P 1'
_cell_length_a   6.81640398
_cell_length_b   6.81640398
_cell_length_c   11.30111700
_cell_angle_alpha   90.00000000
_cell_angle_beta   90.00000000
_cell_angle_gamma   119.99999978
_symmetry_Int_Tables_number   1
_chemical_formula_structural   BaMo4O7
_chemical_formula_sum   'Ba2 Mo8 O14'
_cell_volume   454.73946467
_cell_formula_units_Z   2
loop_
 _symmetry_equiv_pos_site_id
 _symmetry_equiv_pos_as_xyz
  1  'x, y, z'
loop_
 _atom_site_type_symbol
 _atom_site_label
 _atom_site_symmetry_multiplicity
 _atom_site_fract_x
 _atom_site_fract_y
 _atom_site_fract_z
 _atom_site_occupancy
  Ba  Ba0  1  0.66666700  0.33333300  0.46046200  1
  Ba  Ba1  1  0.33333300  0.66666700  0.96046200  1
  Mo  Mo2  1  0.81285900  0.18714100  0.18331100  1
  Mo  Mo3  1  0.62571800  0.81285900  0.68331100  1
  Mo  Mo4  1  0.18714100  0.37428200  0.68331100  1
  Mo  Mo5  1  0.81285900  0.62571800  0.18331100  1
  Mo  Mo6  1  0.37428200  0.18714100  0.18331100  1
  Mo  Mo7  1  0.18714100  0.81285900  0.68331100  1
  Mo  Mo8  1  0.00000000  0.00000000  0.42314000  1
  Mo  Mo9  1  0.00000000  0.00000000  0.92314000  1
  O  O10  1  0.85823500  0.14176500  0.01138300  1
  O  O11  1  0.71647000  0.85823500  0.51138300  1
  O  O12  1  0.14176500  0.28353000  0.51138300  1
  O  O13  1  0.85823500  0.71647000  0.01138300  1
  O  O14  1  0.28353000  0.14176500  0.01138300  1
  O  O15  1  0.14176500  0.85823500  0.51138300  1
  O  O16  1  0.00000000  0.00000000  0.74522500  1
  O  O17  1  0.00000000  0.00000000  0.24522500  1
  O  O18  1  0.52449600  0.47550400  0.28038100  1
  O  O19  1  0.04899100  0.52449600  0.78038100  1
  O  O20  1  0.47550400  0.95100900  0.78038100  1
  O  O21  1  0.52449600  0.04899100  0.28038100  1
  O  O22  1  0.47550400  0.52449600  0.78038100  1
  O  O23  1  0.95100900  0.47550400  0.28038100  1
