# generated using pymatgen
data_Ca2SbWO6
_symmetry_space_group_name_H-M   'P 1'
_cell_length_a   5.91166500
_cell_length_b   5.63869100
_cell_length_c   9.91406910
_cell_angle_alpha   55.87953949
_cell_angle_beta   90.00000000
_cell_angle_gamma   90.00000000
_symmetry_Int_Tables_number   1
_chemical_formula_structural   Ca2SbWO6
_chemical_formula_sum   'Ca4 Sb2 W2 O12'
_cell_volume   273.58796699
_cell_formula_units_Z   2
loop_
 _symmetry_equiv_pos_site_id
 _symmetry_equiv_pos_as_xyz
  1  'x, y, z'
loop_
 _atom_site_type_symbol
 _atom_site_label
 _atom_site_symmetry_multiplicity
 _atom_site_fract_x
 _atom_site_fract_y
 _atom_site_fract_z
 _atom_site_occupancy
  Ca  Ca0  1  0.44253400  0.26138800  0.75126700  1
  Ca  Ca1  1  0.94253400  0.73861200  0.74873300  1
  Ca  Ca2  1  0.55746600  0.73861200  0.24873300  1
  Ca  Ca3  1  0.05746600  0.26138800  0.25126700  1
  Sb  Sb4  1  0.50000000  0.00000000  0.50000000  1
  Sb  Sb5  1  0.00000000  0.00000000  0.00000000  1
  W  W6  1  0.50000000  0.50000000  0.00000000  1
  W  W7  1  0.00000000  0.50000000  0.50000000  1
  O  O8  1  0.20930800  0.39524000  0.92997200  1
  O  O9  1  0.70930800  0.60476000  0.57002800  1
  O  O10  1  0.79069200  0.60476000  0.07002800  1
  O  O11  1  0.29069200  0.39524000  0.42997200  1
  O  O12  1  0.32538400  0.73246200  0.05395300  1
  O  O13  1  0.82538400  0.26753800  0.44604700  1
  O  O14  1  0.67461600  0.26753800  0.94604700  1
  O  O15  1  0.17461600  0.73246200  0.55395300  1
  O  O16  1  0.05709300  0.14746800  0.73300300  1
  O  O17  1  0.55709300  0.85253200  0.76699700  1
  O  O18  1  0.44290700  0.14746800  0.23300300  1
  O  O19  1  0.94290700  0.85253200  0.26699700  1
