# generated using pymatgen
data_BaMgWF7
_symmetry_space_group_name_H-M   'P 1'
_cell_length_a   10.22845400
_cell_length_b   5.72248100
_cell_length_c   9.93760553
_cell_angle_alpha   87.42728433
_cell_angle_beta   90.00000000
_cell_angle_gamma   90.00000000
_symmetry_Int_Tables_number   1
_chemical_formula_structural   BaMgWF7
_chemical_formula_sum   'Ba4 Mg4 W4 F28'
_cell_volume   581.08296641
_cell_formula_units_Z   4
loop_
 _symmetry_equiv_pos_site_id
 _symmetry_equiv_pos_as_xyz
  1  'x, y, z'
loop_
 _atom_site_type_symbol
 _atom_site_label
 _atom_site_symmetry_multiplicity
 _atom_site_fract_x
 _atom_site_fract_y
 _atom_site_fract_z
 _atom_site_occupancy
  Ba  Ba0  1  0.32758100  0.73260300  0.49685800  1
  Ba  Ba1  1  0.82758100  0.26739700  0.00314200  1
  Ba  Ba2  1  0.67241900  0.26739700  0.50314200  1
  Ba  Ba3  1  0.17241900  0.73260300  0.99685800  1
  Mg  Mg4  1  0.39277400  0.31293700  0.80998100  1
  Mg  Mg5  1  0.89277400  0.68706300  0.69001900  1
  Mg  Mg6  1  0.10722600  0.31293700  0.30998100  1
  Mg  Mg7  1  0.60722600  0.68706300  0.19001900  1
  W  W8  1  0.61180200  0.80637300  0.81484800  1
  W  W9  1  0.38819800  0.19362700  0.18515200  1
  W  W10  1  0.88819800  0.80637300  0.31484800  1
  W  W11  1  0.11180200  0.19362700  0.68515200  1
  F  F12  1  0.45410000  0.86631400  0.12344800  1
  F  F13  1  0.05952800  0.62582300  0.37564500  1
  F  F14  1  0.71834300  0.51120800  0.74975300  1
  F  F15  1  0.28165700  0.48879200  0.25024700  1
  F  F16  1  0.45834600  0.10338600  0.37741700  1
  F  F17  1  0.80304600  0.73618800  0.50838200  1
  F  F18  1  0.78795100  0.97369500  0.74944200  1
  F  F19  1  0.95834600  0.89661400  0.12258300  1
  F  F20  1  0.44047200  0.62582300  0.87564500  1
  F  F21  1  0.21834300  0.48879200  0.75024700  1
  F  F22  1  0.04590000  0.86631400  0.62344800  1
  F  F23  1  0.54590000  0.13368600  0.87655200  1
  F  F24  1  0.28795100  0.02630500  0.75055800  1
  F  F25  1  0.95856800  0.60468000  0.86882700  1
  F  F26  1  0.54165400  0.89661400  0.62258300  1
  F  F27  1  0.04165400  0.10338600  0.87741700  1
  F  F28  1  0.21204900  0.02630500  0.25055800  1
  F  F29  1  0.95410000  0.13368600  0.37655300  1
  F  F30  1  0.45856800  0.39532000  0.63117300  1
  F  F31  1  0.94047200  0.37417700  0.62435500  1
  F  F32  1  0.04143200  0.39532000  0.13117300  1
  F  F33  1  0.71204900  0.97369500  0.24944200  1
  F  F34  1  0.54143200  0.60468000  0.36882700  1
  F  F35  1  0.30304600  0.26381200  0.99161800  1
  F  F36  1  0.19695400  0.26381200  0.49161800  1
  F  F37  1  0.69695400  0.73618800  0.00838200  1
  F  F38  1  0.55952800  0.37417700  0.12435500  1
  F  F39  1  0.78165700  0.51120800  0.24975300  1
